
  SciTegic08031211342D

 26 28  0  0  1  0            999 V2000
    0.0000    0.0000    0.0000 C   0  0
    0.0000    0.0000    0.0000 C   0  0
    0.0000    0.0000    0.0000 N   0  0
    0.0000    0.0000    0.0000 C   0  0
    0.0000    0.0000    0.0000 N   0  0
    0.0000    0.0000    0.0000 C   0  0
    0.0000    0.0000    0.0000 C   0  0
    0.0000    0.0000    0.0000 N   0  0
    0.0000    0.0000    0.0000 C   0  0
    0.0000    0.0000    0.0000 N   0  0
    0.0000    0.0000    0.0000 C   0  0  2  0  0  0
    0.0000    0.0000    0.0000 C   0  0
    0.0000    0.0000    0.0000 C   0  0
    0.0000    0.0000    0.0000 C   0  0
    0.0000    0.0000    0.0000 O   0  0
    0.0000    0.0000    0.0000 N   0  0
    0.0000    0.0000    0.0000 C   0  0
    0.0000    0.0000    0.0000 N   0  0
    0.0000    0.0000    0.0000 C   0  0
    0.0000    0.0000    0.0000 C   0  0
    0.0000    0.0000    0.0000 C   0  0
    0.0000    0.0000    0.0000 C   0  0
    0.0000    0.0000    0.0000 C   0  0
    0.0000    0.0000    0.0000 C   0  0
    0.0000    0.0000    0.0000 C   0  0
    0.0000    0.0000    0.0000 C   0  0
  1  2  1  0
  2  3  1  0
  3  4  1  0
  4  5  2  3
  5  6  1  0
  6  7  2  3
  7  3  1  0
  7  8  1  0
  8  9  2  3
  9 10  1  0
 11 10  1  1
 11 12  1  0
 12 13  1  0
 11 14  1  0
 14 15  1  0
  9 16  1  0
 16 17  2  3
 17  6  1  0
 17 18  1  0
 18 19  1  0
 19 20  1  0
 20 21  2  3
 21 22  1  0
 22 23  2  3
 23 24  1  0
 24 25  2  3
 25 20  1  0
  2 26  1  0
M  END
> <smiles>
CC(N1C=NC2=C1N=C(N[C@H](CC)CO)N=C2NCC3=CC=CC=C3)C

> <facility_reagent_id>
HMSL10001

> <salt_id>
101

> <chemical_name>
(R)- Roscovitine; CYC202; Seliciclib

> <inchi>
InChI=1S/C19H26N6O/c1-4-15(11-26)22-19-23-17(20-10-14-8-6-5-7-9-14)16-18(24-19)25(12-21-16)13(2)3/h5-9,12-13,15,26H,4,10-11H2,1-3H3,(H2,20,22,23,24)/t15-/m1/s1

> <inchi_key>

> <chebi_id>

> <lincs_id>

> <pubchem_cid>
160355

> <chembl_id>
14762

> <molecular_mass>
354.45

> <molecular_formula>
C19H26N6O

$$$$

  SciTegic08031211342D

 34 37  0  0  0  0            999 V2000
    0.0000    0.0000    0.0000 C   0  0
    0.0000    0.0000    0.0000 C   0  0
    0.0000    0.0000    0.0000 N   0  0
    0.0000    0.0000    0.0000 C   0  0
    0.0000    0.0000    0.0000 C   0  0
    0.0000    0.0000    0.0000 N   0  0
    0.0000    0.0000    0.0000 C   0  0
    0.0000    0.0000    0.0000 C   0  0
    0.0000    0.0000    0.0000 C   0  0
    0.0000    0.0000    0.0000 C   0  0
    0.0000    0.0000    0.0000 N   0  0
    0.0000    0.0000    0.0000 C   0  0
    0.0000    0.0000    0.0000 C   0  0
    0.0000    0.0000    0.0000 C   0  0
    0.0000    0.0000    0.0000 C   0  0
    0.0000    0.0000    0.0000 C   0  0
    0.0000    0.0000    0.0000 C   0  0
    0.0000    0.0000    0.0000 N   0  0
    0.0000    0.0000    0.0000 C   0  0
    0.0000    0.0000    0.0000 C   0  0
    0.0000    0.0000    0.0000 C   0  0
    0.0000    0.0000    0.0000 C   0  0
    0.0000    0.0000    0.0000 N   0  0
    0.0000    0.0000    0.0000 O   0  0
    0.0000    0.0000    0.0000 O   0  0
    0.0000    0.0000    0.0000 C   0  0
    0.0000    0.0000    0.0000 O   0  0
    0.0000    0.0000    0.0000 C   0  0
    0.0000    0.0000    0.0000 C   0  0
    0.0000    0.0000    0.0000 C   0  0
    0.0000    0.0000    0.0000 F   0  0
    0.0000    0.0000    0.0000 F   0  0
    0.0000    0.0000    0.0000 F   0  0
    0.0000    0.0000    0.0000 C   0  0
  1  2  1  0
  2  3  1  0
  3  4  2  3
  2  5  2  3
  5  6  1  0
  6  4  1  0
  6  7  1  0
  7  8  2  3
  8  9  1  0
  9 10  1  0
 10 11  1  0
 11 12  1  0
 12 13  2  3
 13 14  1  0
 14 15  2  3
 15 16  1  0
 15 17  1  0
 17 18  1  0
 18 19  1  0
 19 20  1  0
 20 21  2  3
 21 22  1  0
 22 23  2  3
 23 24  1  0
 24 20  1  0
 19 25  2  0
 17 26  2  3
 26 12  1  0
 10 27  2  0
  9 28  2  3
 28 29  1  0
 29 30  1  0
 30 31  1  0
 30 32  1  0
 30 33  1  0
 29 34  2  3
 34  7  1  0
M  END
> <smiles>
CC(N=C1)=CN1C2=CC(C(NC3=CC=C(C)C(NC(C4=CC=NO4)=O)=C3)=O)=CC(C(F)(F)F)=C2

> <facility_reagent_id>
HMSL10002

> <salt_id>
101

> <chemical_name>
ALW-II-38-3

> <inchi>
InChI=1S/C23H18F3N5O3/c1-13-3-4-17(10-19(13)30-22(33)20-5-6-28-34-20)29-21(32)15-7-16(23(24,25)26)9-18(8-15)31-11-14(2)27-12-31/h3-12H,1-2H3,(H,29,32)(H,30,33)

> <inchi_key>

> <chebi_id>

> <lincs_id>

> <pubchem_cid>
n/a

> <chembl_id>
n/a

> <molecular_mass>
469.41

> <molecular_formula>
C23H18F3N5O3

$$$$

  SciTegic08031211342D

 30 32  0  0  0  0            999 V2000
    0.0000    0.0000    0.0000 O   0  0
    0.0000    0.0000    0.0000 C   0  0
    0.0000    0.0000    0.0000 N   0  0
    0.0000    0.0000    0.0000 C   0  0
    0.0000    0.0000    0.0000 C   0  0
    0.0000    0.0000    0.0000 C   0  0
    0.0000    0.0000    0.0000 C   0  0
    0.0000    0.0000    0.0000 C   0  0
    0.0000    0.0000    0.0000 C   0  0
    0.0000    0.0000    0.0000 F   0  0
    0.0000    0.0000    0.0000 F   0  0
    0.0000    0.0000    0.0000 F   0  0
    0.0000    0.0000    0.0000 C   0  0
    0.0000    0.0000    0.0000 C   0  0
    0.0000    0.0000    0.0000 C   0  0
    0.0000    0.0000    0.0000 C   0  0
    0.0000    0.0000    0.0000 C   0  0
    0.0000    0.0000    0.0000 C   0  0
    0.0000    0.0000    0.0000 C   0  0
    0.0000    0.0000    0.0000 N   0  0
    0.0000    0.0000    0.0000 C   0  0
    0.0000    0.0000    0.0000 C   0  0
    0.0000    0.0000    0.0000 N   0  0
    0.0000    0.0000    0.0000 C   0  0
    0.0000    0.0000    0.0000 C   0  0
    0.0000    0.0000    0.0000 C   0  0
    0.0000    0.0000    0.0000 N   0  0
    0.0000    0.0000    0.0000 O   0  0
    0.0000    0.0000    0.0000 C   0  0
    0.0000    0.0000    0.0000 C   0  0
  1  2  2  0
  2  3  1  0
  3  4  1  0
  4  5  2  3
  5  6  1  0
  6  7  2  3
  7  8  1  0
  8  9  1  0
  9 10  1  0
  9 11  1  0
  9 12  1  0
  8 13  2  3
 13  4  1  0
  2 14  1  0
 14 15  2  3
 15 16  1  0
 16 17  2  3
 17 18  1  0
 17 19  1  0
 19 20  1  0
 20 21  1  0
 21 22  2  3
 22 23  1  0
 23 24  2  3
 24 25  1  0
 25 26  1  0
 26 27  1  0
 26 28  2  0
 25 29  2  3
 29 21  1  0
 19 30  2  3
 30 14  1  0
M  END
> <smiles>
O=C(NC1=CC=CC(C(F)(F)F)=C1)C2=CC=C(C)C(NC3=CN=CC(C(N)=O)=C3)=C2

> <facility_reagent_id>
HMSL10003

> <salt_id>
101

> <chemical_name>
ALW-II-49-7

> <inchi>
InChI=1S/C21H17F3N4O2/c1-12-5-6-13(8-18(12)27-17-7-14(19(25)29)10-26-11-17)20(30)28-16-4-2-3-15(9-16)21(22,23)24/h2-11,27H,1H3,(H2,25,29)(H,28,30)

> <inchi_key>

> <chebi_id>

> <lincs_id>

> <pubchem_cid>
n/a

> <chembl_id>
n/a

> <molecular_mass>
414.38

> <molecular_formula>
C21H17F3N4O2

$$$$

  SciTegic08031211342D

 25 27  0  0  0  0            999 V2000
    0.0000    0.0000    0.0000 O   0  0
    0.0000    0.0000    0.0000 C   0  0
    0.0000    0.0000    0.0000 C   0  0
    0.0000    0.0000    0.0000 N   0  0
    0.0000    0.0000    0.0000 N   0  0
    0.0000    0.0000    0.0000 C   0  0
    0.0000    0.0000    0.0000 C   0  0
    0.0000    0.0000    0.0000 N   0  0
    0.0000    0.0000    0.0000 C   0  0
    0.0000    0.0000    0.0000 C   0  0
    0.0000    0.0000    0.0000 C   0  0
    0.0000    0.0000    0.0000 Cl  0  0
    0.0000    0.0000    0.0000 C   0  0
    0.0000    0.0000    0.0000 C   0  0
    0.0000    0.0000    0.0000 C   0  0
    0.0000    0.0000    0.0000 C   0  0
    0.0000    0.0000    0.0000 Cl  0  0
    0.0000    0.0000    0.0000 O   0  0
    0.0000    0.0000    0.0000 N   0  0
    0.0000    0.0000    0.0000 C   0  0
    0.0000    0.0000    0.0000 C   0  0
    0.0000    0.0000    0.0000 C   0  0
    0.0000    0.0000    0.0000 N   0  0
    0.0000    0.0000    0.0000 C   0  0
    0.0000    0.0000    0.0000 C   0  0
  1  2  2  0
  2  3  1  0
  3  4  2  3
  4  5  1  0
  5  6  1  0
  6  7  2  3
  7  3  1  0
  7  8  1  0
  8  9  1  0
  9 10  1  0
 10 11  2  3
 11 12  1  0
 11 13  1  0
 13 14  2  3
 14 15  1  0
 15 16  2  3
 16 10  1  0
 16 17  1  0
  9 18  2  0
  2 19  1  0
 19 20  1  0
 20 21  1  0
 21 22  1  0
 22 23  1  0
 23 24  1  0
 24 25  1  0
 25 20  1  0
M  END
> <smiles>
O=C(C1=NNC=C1NC(C2=C(Cl)C=CC=C2Cl)=O)NC3CCNCC3

> <facility_reagent_id>
HMSL10004

> <salt_id>
101

> <chemical_name>
AT-7519

> <inchi>
InChI=1S/C16H17Cl2N5O2/c17-10-2-1-3-11(18)13(10)15(24)22-12-8-20-23-14(12)16(25)21-9-4-6-19-7-5-9/h1-3,8-9,19H,4-7H2,(H,20,23)(H,21,25)(H,22,24)

> <inchi_key>

> <chebi_id>

> <lincs_id>

> <pubchem_cid>
11338033

> <chembl_id>
445813

> <molecular_mass>
382.24

> <molecular_formula>
C16H17Cl2N5O2

$$$$

  SciTegic08031211342D

 32 35  0  0  0  0            999 V2000
    0.0000    0.0000    0.0000 Cl  0  0
    0.0000    0.0000    0.0000 C   0  0
    0.0000    0.0000    0.0000 C   0  0
    0.0000    0.0000    0.0000 N   0  0
    0.0000    0.0000    0.0000 C   0  0
    0.0000    0.0000    0.0000 N   0  0
    0.0000    0.0000    0.0000 C   0  0
    0.0000    0.0000    0.0000 N   0  0
    0.0000    0.0000    0.0000 O   0  0
    0.0000    0.0000    0.0000 C   0  0
    0.0000    0.0000    0.0000 C   0  0
    0.0000    0.0000    0.0000 C   0  0
    0.0000    0.0000    0.0000 O   0  0
    0.0000    0.0000    0.0000 C   0  0
    0.0000    0.0000    0.0000 C   0  0
    0.0000    0.0000    0.0000 C   0  0
    0.0000    0.0000    0.0000 O   0  0
    0.0000    0.0000    0.0000 C   0  0
    0.0000    0.0000    0.0000 C   0  0
    0.0000    0.0000    0.0000 C   0  0
    0.0000    0.0000    0.0000 N   0  0
    0.0000    0.0000    0.0000 C   0  0
    0.0000    0.0000    0.0000 C   0  0
    0.0000    0.0000    0.0000 C   0  0
    0.0000    0.0000    0.0000 C   0  0
    0.0000    0.0000    0.0000 O   0  0
    0.0000    0.0000    0.0000 C   0  0
    0.0000    0.0000    0.0000 C   0  0
    0.0000    0.0000    0.0000 O   0  0
    0.0000    0.0000    0.0000 C   0  0
    0.0000    0.0000    0.0000 C   0  0
    0.0000    0.0000    0.0000 C   0  0
  1  2  1  0
  2  3  2  3
  3  4  1  0
  4  5  1  0
  5  6  1  0
  6  7  1  0
  7  8  2  3
  8  9  1  0
  9 10  1  0
 10 11  1  0
 10 12  2  3
 12  7  1  0
  5 13  2  0
  3 14  1  0
 14 15  2  3
 15 16  1  0
 16 17  1  0
 17 18  1  0
 18 19  2  3
 19 20  1  0
 20 21  2  3
 21 22  1  0
 22 23  2  3
 23 18  1  0
 23 24  1  0
 24 25  2  3
 25 26  1  0
 26 27  1  0
 25 28  1  0
 28 29  1  0
 29 30  1  0
 28 31  2  3
 31 22  1  0
 16 32  2  3
 32  2  1  0
M  END
> <smiles>
ClC1=C(NC(NC4=NOC(C)=C4)=O)C=CC(OC2=CC=NC3=C2C=C(OC)C(OC)=C3)=C1

> <facility_reagent_id>
HMSL10005

> <salt_id>
101

> <chemical_name>
AV-951; Tivozanib

> <inchi>
InChI=1S/C22H19ClN4O5/c1-12-8-21(27-32-12)26-22(28)25-16-5-4-13(9-15(16)23)31-18-6-7-24-17-11-20(30-3)19(29-2)10-14(17)18/h4-11H,1-3H3,(H2,25,26,27,28)

> <inchi_key>

> <chebi_id>

> <lincs_id>

> <pubchem_cid>
n/a

> <chembl_id>
n/a

> <molecular_mass>
454.86

> <molecular_formula>
C22H19ClN4O5

$$$$

  SciTegic08031211342D

 25 27  0  0  1  0            999 V2000
    0.0000    0.0000    0.0000 N   0  0
    0.0000    0.0000    0.0000 C   0  0
    0.0000    0.0000    0.0000 N   0  0
    0.0000    0.0000    0.0000 C   0  0
    0.0000    0.0000    0.0000 C   0  0
    0.0000    0.0000    0.0000 C   0  0
    0.0000    0.0000    0.0000 N   0  0
    0.0000    0.0000    0.0000 C   0  0  1  0  0  0
    0.0000    0.0000    0.0000 C   0  0
    0.0000    0.0000    0.0000 N   0  0
    0.0000    0.0000    0.0000 C   0  0
    0.0000    0.0000    0.0000 C   0  0
    0.0000    0.0000    0.0000 C   0  0
    0.0000    0.0000    0.0000 O   0  0
    0.0000    0.0000    0.0000 S   0  0
    0.0000    0.0000    0.0000 C   0  0
    0.0000    0.0000    0.0000 C   0  0
    0.0000    0.0000    0.0000 C   0  0
    0.0000    0.0000    0.0000 C   0  0
    0.0000    0.0000    0.0000 F   0  0
    0.0000    0.0000    0.0000 C   0  0
    0.0000    0.0000    0.0000 C   0  0
    0.0000    0.0000    0.0000 C   0  0
    0.0000    0.0000    0.0000 C   0  0
    0.0000    0.0000    0.0000 O   0  0
  1  2  1  0
  2  3  1  0
  3  4  1  0
  4  5  2  3
  5  6  1  0
  6  7  1  0
  8  7  1  1
  8  9  1  0
  9 10  1  0
 10 11  1  0
 11 12  1  0
 12 13  1  0
 13  8  1  0
  6 14  2  0
  5 15  1  0
 15 16  1  0
 16 17  1  0
 17 18  2  3
 18 19  1  0
 19 20  1  0
 19 21  2  3
 21 22  1  0
 22 23  2  3
 23 17  1  0
 16 24  2  3
 24  4  1  0
  2 25  2  0
M  END
> <smiles>
NC(NC1=C(C(N[C@H]2CNCCC2)=O)SC(C3=CC(F)=CC=C3)=C1)=O

> <facility_reagent_id>
HMSL10006

> <salt_id>
101

> <chemical_name>
AZD7762

> <inchi>
InChI=1S/C17H19FN4O2S/c18-11-4-1-3-10(7-11)14-8-13(22-17(19)24)15(25-14)16(23)21-12-5-2-6-20-9-12/h1,3-4,7-8,12,20H,2,5-6,9H2,(H,21,23)(H3,19,22,24)/t12-/m1/s1

> <inchi_key>

> <chebi_id>

> <lincs_id>

> <pubchem_cid>
n/a

> <chembl_id>
n/a

> <molecular_mass>
362.42

> <molecular_formula>
C17H19FN4O2S

$$$$

  SciTegic08031211342D

 34 38  0  0  1  0            999 V2000
    0.0000    0.0000    0.0000 O   0  0
    0.0000    0.0000    0.0000 C   0  0
    0.0000    0.0000    0.0000 C   0  0
    0.0000    0.0000    0.0000 C   0  0
    0.0000    0.0000    0.0000 O   0  0
    0.0000    0.0000    0.0000 C   0  0
    0.0000    0.0000    0.0000 C   0  0
    0.0000    0.0000    0.0000 C   0  0
    0.0000    0.0000    0.0000 C   0  0
    0.0000    0.0000    0.0000 C   0  0
    0.0000    0.0000    0.0000 C   0  0
    0.0000    0.0000    0.0000 C   0  0
    0.0000    0.0000    0.0000 C   0  0
    0.0000    0.0000    0.0000 C   0  0
    0.0000    0.0000    0.0000 N   0  0
    0.0000    0.0000    0.0000 C   0  0  1  0  0  0
    0.0000    0.0000    0.0000 C   0  0
    0.0000    0.0000    0.0000 C   0  0
    0.0000    0.0000    0.0000 O   0  0
    0.0000    0.0000    0.0000 C   0  0
    0.0000    0.0000    0.0000 C   0  0
    0.0000    0.0000    0.0000 N   0  0
    0.0000    0.0000    0.0000 C   0  0
    0.0000    0.0000    0.0000 N   0  0
    0.0000    0.0000    0.0000 C   0  0  1  0  0  0
    0.0000    0.0000    0.0000 C   0  0
    0.0000    0.0000    0.0000 C   0  0
    0.0000    0.0000    0.0000 O   0  0
    0.0000    0.0000    0.0000 C   0  0
    0.0000    0.0000    0.0000 C   0  0
    0.0000    0.0000    0.0000 N   0  0
    0.0000    0.0000    0.0000 C   0  0
    0.0000    0.0000    0.0000 N   0  0
    0.0000    0.0000    0.0000 C   0  0
  1  2  1  0
  2  3  1  0
  3  4  2  3
  4  5  1  0
  5  6  1  0
  4  7  1  0
  7  8  2  3
  8  9  1  0
  9 10  1  0
 10 11  2  3
 11 12  1  0
 12 13  2  3
 13 14  1  0
 14 15  1  0
 15 16  1  0
 16 17  1  1
 16 18  1  0
 18 19  1  0
 19 20  1  0
 20 21  1  0
 21 15  1  0
 14 22  2  3
 22 23  1  0
 23 24  1  0
 24 25  1  0
 25 26  1  1
 25 27  1  0
 27 28  1  0
 28 29  1  0
 29 30  1  0
 30 24  1  0
 23 31  2  3
 13 32  1  0
 32 31  1  0
 32 33  2  3
 33 10  1  0
  9 34  2  3
 34  3  1  0
M  END
> <smiles>
OCC1=C(OC)C=CC(C2=CC=C(C(N3[C@@H](C)COCC3)=NC(N4[C@@H](C)COCC4)=N5)C5=N2)=C1

> <facility_reagent_id>
HMSL10007

> <salt_id>
101

> <chemical_name>
AZD8055

> <inchi>
InChI=1S/C25H31N5O4/c1-16-14-33-10-8-29(16)24-20-5-6-21(18-4-7-22(32-3)19(12-18)13-31)26-23(20)27-25(28-24)30-9-11-34-15-17(30)2/h4-7,12,16-17,31H,8-11,13-15H2,1-3H3/t16-,17-/m0/s1

> <inchi_key>

> <chebi_id>

> <lincs_id>

> <pubchem_cid>
n/a

> <chembl_id>
n/a

> <molecular_mass>
465.24

> <molecular_formula>
C25H31N5O4

$$$$

  SciTegic08031211342D

 32 34  0  0  0  0            999 V2000
    0.0000    0.0000    0.0000 O   0  0
    0.0000    0.0000    0.0000 C   0  0
    0.0000    0.0000    0.0000 C   0  0
    0.0000    0.0000    0.0000 N   0  0
    0.0000    0.0000    0.0000 C   0  0
    0.0000    0.0000    0.0000 O   0  0
    0.0000    0.0000    0.0000 C   0  0
    0.0000    0.0000    0.0000 C   0  0
    0.0000    0.0000    0.0000 C   0  0
    0.0000    0.0000    0.0000 C   0  0
    0.0000    0.0000    0.0000 C   0  0
    0.0000    0.0000    0.0000 C   0  0
    0.0000    0.0000    0.0000 N   0  0
    0.0000    0.0000    0.0000 C   0  0
    0.0000    0.0000    0.0000 N   0  0
    0.0000    0.0000    0.0000 C   0  0
    0.0000    0.0000    0.0000 C   0  0
    0.0000    0.0000    0.0000 C   0  0
    0.0000    0.0000    0.0000 C   0  0
    0.0000    0.0000    0.0000 F   0  0
    0.0000    0.0000    0.0000 F   0  0
    0.0000    0.0000    0.0000 F   0  0
    0.0000    0.0000    0.0000 C   0  0
    0.0000    0.0000    0.0000 C   0  0
    0.0000    0.0000    0.0000 C   0  0
    0.0000    0.0000    0.0000 Cl  0  0
    0.0000    0.0000    0.0000 O   0  0
    0.0000    0.0000    0.0000 C   0  0
    0.0000    0.0000    0.0000 C   0  0
    0.0000    0.0000    0.0000 C   0  0
    0.0000    0.0000    0.0000 N   0  0
    0.0000    0.0000    0.0000 C   0  0
  1  2  2  0
  2  3  1  0
  3  4  2  3
  4  5  1  0
  5  6  1  0
  6  7  1  0
  7  8  2  3
  8  9  1  0
  9 10  2  3
 10 11  1  0
 11 12  2  3
 12  7  1  0
 10 13  1  0
 13 14  1  0
 14 15  1  0
 15 16  1  0
 16 17  2  3
 17 18  1  0
 18 19  1  0
 19 20  1  0
 19 21  1  0
 19 22  1  0
 18 23  2  3
 23 24  1  0
 24 25  2  3
 25 16  1  0
 23 26  1  0
 14 27  2  0
  5 28  2  3
 28 29  1  0
 29 30  2  3
 30  3  1  0
  2 31  1  0
 31 32  1  0
M  END
> <smiles>
O=C(C1=NC(OC2=CC=C(C=C2)NC(NC3=CC(C(F)(F)F)=C(C=C3)Cl)=O)=CC=C1)NC

> <facility_reagent_id>
HMSL10008

> <salt_id>
101

> <chemical_name>
BAY-439006; Sorafenib

> <inchi>
InChI=1S/C21H16ClF3N4O3/c1-26-19(30)17-3-2-4-18(29-17)32-14-8-5-12(6-9-14)27-20(31)28-13-7-10-16(22)15(11-13)21(23,24)25/h2-11H,1H3,(H,26,30)(H2,27,28,31)

> <inchi_key>

> <chebi_id>

> <lincs_id>

> <pubchem_cid>
n/a

> <chembl_id>
n/a

> <molecular_mass>
464.82

> <molecular_formula>
C21H16ClF3N4O3

$$$$

  SciTegic08031211342D

 26 29  0  0  0  0            999 V2000
    0.0000    0.0000    0.0000 N   0  0
    0.0000    0.0000    0.0000 C   0  0
    0.0000    0.0000    0.0000 N   0  0
    0.0000    0.0000    0.0000 C   0  0
    0.0000    0.0000    0.0000 C   0  0
    0.0000    0.0000    0.0000 N   0  0
    0.0000    0.0000    0.0000 C   0  0
    0.0000    0.0000    0.0000 C   0  0
    0.0000    0.0000    0.0000 C   0  0
    0.0000    0.0000    0.0000 C   0  0
    0.0000    0.0000    0.0000 N   0  0
    0.0000    0.0000    0.0000 N   0  0
    0.0000    0.0000    0.0000 C   0  0
    0.0000    0.0000    0.0000 C   0  0
    0.0000    0.0000    0.0000 C   0  0
    0.0000    0.0000    0.0000 C   0  0
    0.0000    0.0000    0.0000 O   0  0
    0.0000    0.0000    0.0000 C   0  0
    0.0000    0.0000    0.0000 C   0  0
    0.0000    0.0000    0.0000 O   0  0
    0.0000    0.0000    0.0000 C   0  0
    0.0000    0.0000    0.0000 C   0  0
    0.0000    0.0000    0.0000 C   0  0
    0.0000    0.0000    0.0000 N   0  0
    0.0000    0.0000    0.0000 C   0  0
    0.0000    0.0000    0.0000 N   0  0
  1  2  1  0
  2  3  2  3
  3  4  1  0
  4  5  1  0
  5  6  2  3
  6  7  1  0
  7  8  2  3
  8  9  1  0
  9 10  2  3
 10  5  1  0
  4 11  2  3
 11 12  1  0
 12  2  1  0
 12 13  1  0
 13 14  2  3
 14 15  1  0
 15 16  2  3
 16 17  1  0
 17 18  1  0
 16 19  1  0
 19 20  1  0
 20 21  1  0
 19 22  2  3
 22 23  1  0
 23 14  1  0
 23 24  2  3
 24 25  1  0
 25 26  2  3
 26 13  1  0
M  END
> <smiles>
NC1=NC(C2=NC=CC=C2)=NN1C3=C4C=C(OC)C(OC)=CC4=NC=N3

> <facility_reagent_id>
HMSL10009

> <salt_id>
101

> <chemical_name>
CP466722

> <inchi>
InChI=1S/C17H15N7O2/c1-25-13-7-10-12(8-14(13)26-2)20-9-21-16(10)24-17(18)22-15(23-24)11-5-3-4-6-19-11/h3-9H,1-2H3,(H2,18,22,23)

> <inchi_key>

> <chebi_id>

> <lincs_id>

> <pubchem_cid>
n/a

> <chembl_id>
n/a

> <molecular_mass>
349.35

> <molecular_formula>
C17H15N7O2

$$$$

  SciTegic08031211342D

 35 38  0  0  0  0            999 V2000
    0.0000    0.0000    0.0000 C   0  0
    0.0000    0.0000    0.0000 C   0  0
    0.0000    0.0000    0.0000 C   0  0
    0.0000    0.0000    0.0000 C   0  0
    0.0000    0.0000    0.0000 N   0  0
    0.0000    0.0000    0.0000 C   0  0
    0.0000    0.0000    0.0000 N   0  0
    0.0000    0.0000    0.0000 C   0  0
    0.0000    0.0000    0.0000 N   0  0
    0.0000    0.0000    0.0000 C   0  0
    0.0000    0.0000    0.0000 C   0  0
    0.0000    0.0000    0.0000 C   0  0
    0.0000    0.0000    0.0000 C   0  0
    0.0000    0.0000    0.0000 C   0  0
    0.0000    0.0000    0.0000 C   0  0
    0.0000    0.0000    0.0000 C   0  0
    0.0000    0.0000    0.0000 N   0  0
    0.0000    0.0000    0.0000 C   0  0
    0.0000    0.0000    0.0000 C   0  0
    0.0000    0.0000    0.0000 O   0  0
    0.0000    0.0000    0.0000 C   0  0
    0.0000    0.0000    0.0000 O   0  0
    0.0000    0.0000    0.0000 C   0  0
    0.0000    0.0000    0.0000 C   0  0
    0.0000    0.0000    0.0000 C   0  0
    0.0000    0.0000    0.0000 C   0  0
    0.0000    0.0000    0.0000 C   0  0
    0.0000    0.0000    0.0000 O   0  0
    0.0000    0.0000    0.0000 C   0  0
    0.0000    0.0000    0.0000 C   0  0
    0.0000    0.0000    0.0000 C   0  0
    0.0000    0.0000    0.0000 C   0  0
    0.0000    0.0000    0.0000 C   0  0
    0.0000    0.0000    0.0000 N   0  0
    0.0000    0.0000    0.0000 C   0  0
  1  2  1  0
  2  3  2  3
  3  4  1  0
  4  5  1  0
  5  6  1  0
  6  7  2  3
  7  8  1  0
  8  9  2  3
  9 10  1  0
 10 11  2  3
 11 12  1  0
 12 13  2  3
 13 14  1  0
 14 15  2  3
 15 16  1  0
 16 17  1  0
 17 18  1  0
 18 19  1  0
 19 20  1  0
 20 21  1  0
 18 22  2  0
 13 23  1  0
 23 24  2  3
 24 10  1  0
 24  6  1  0
  4 25  2  3
 25 26  1  0
 26 27  2  3
 27  2  1  0
 27 28  1  0
 28 29  1  0
 29 30  2  3
 30 31  1  0
 31 32  2  3
 32 33  1  0
 32 34  1  0
 34 35  2  3
 35 29  1  0
M  END
> <smiles>
CC1=CC(NC2=NC=NC3=CC=C(/C=C/CNC(COC)=O)C=C32)=CC=C1OC4=CC=C(C)N=C4

> <facility_reagent_id>
HMSL10010

> <salt_id>
101

> <chemical_name>
CP724714

> <inchi>
InChI=1S/C27H27N5O3/c1-18-13-21(8-11-25(18)35-22-9-6-19(2)29-15-22)32-27-23-14-20(7-10-24(23)30-17-31-27)5-4-12-28-26(33)16-34-3/h4-11,13-15,17H,12,16H2,1-3H3,(H,28,33)(H,30,31,32)/b5-4+

> <inchi_key>

> <chebi_id>

> <lincs_id>

> <pubchem_cid>
n/a

> <chembl_id>
n/a

> <molecular_mass>
469.53

> <molecular_formula>
C27H27N5O3

$$$$

  SciTegic08031211342D

 28 31  0  0  1  0            999 V2000
    0.0000    0.0000    0.0000 O   0  0
    0.0000    0.0000    0.0000 C   0  0
    0.0000    0.0000    0.0000 C   0  0
    0.0000    0.0000    0.0000 C   0  0
    0.0000    0.0000    0.0000 C   0  0
    0.0000    0.0000    0.0000 C   0  0
    0.0000    0.0000    0.0000 C   0  0
    0.0000    0.0000    0.0000 C   0  0
    0.0000    0.0000    0.0000 C   0  0
    0.0000    0.0000    0.0000 C   0  0
    0.0000    0.0000    0.0000 Cl  0  0
    0.0000    0.0000    0.0000 O   0  0
    0.0000    0.0000    0.0000 C   0  0
    0.0000    0.0000    0.0000 C   0  0
    0.0000    0.0000    0.0000 C   0  0
    0.0000    0.0000    0.0000 O   0  0
    0.0000    0.0000    0.0000 C   0  0
    0.0000    0.0000    0.0000 C   0  0
    0.0000    0.0000    0.0000 O   0  0
    0.0000    0.0000    0.0000 C   0  0
    0.0000    0.0000    0.0000 C   0  0  2  0  0  0
    0.0000    0.0000    0.0000 C   0  0  2  0  0  0
    0.0000    0.0000    0.0000 O   0  0
    0.0000    0.0000    0.0000 C   0  0
    0.0000    0.0000    0.0000 N   0  0
    0.0000    0.0000    0.0000 C   0  0
    0.0000    0.0000    0.0000 C   0  0
    0.0000    0.0000    0.0000 C   0  0
  1  2  2  0
  2  3  1  0
  3  4  2  3
  4  5  1  0
  5  6  2  3
  6  7  1  0
  7  8  2  3
  8  9  1  0
  9 10  2  3
 10  5  1  0
 10 11  1  0
  4 12  1  0
 12 13  1  0
 13 14  2  3
 14  2  1  0
 14 15  1  0
 15 16  1  0
 15 17  2  3
 17 18  1  0
 18 19  1  0
 18 20  2  3
 20 13  1  6
 20 21  1  0
 21 22  1  0
 22 23  1  1
 22 24  1  0
 24 25  1  0
 25 26  1  0
 25 27  1  0
 27 28  1  0
 21 28  1  1
M  END
> <smiles>
O=C1C=C(C2=CC=CC=C2Cl)OC3=C1C(O)=CC(O)=[C@@]3[C@@H]4[C@H](O)CN(C)CC4

> <facility_reagent_id>
HMSL10011

> <salt_id>
101

> <chemical_name>
Flavopiridol; Alvocidib; HMR-1275; L868275

> <inchi>
InChI=1S/C21H20ClNO5/c1-23-7-6-12(17(27)10-23)19-14(24)8-15(25)20-16(26)9-18(28-21(19)20)11-4-2-3-5-13(11)22/h2-5,8-9,12,17,24-25,27H,6-7,10H2,1H3/t12-,17+/m0/s1

> <inchi_key>

> <chebi_id>

> <lincs_id>

> <pubchem_cid>
5287969

> <chembl_id>
428690

> <molecular_mass>
401.84

> <molecular_formula>
C21H20ClNO5

$$$$

  SciTegic08031211342D

 31 34  0  0  0  0            999 V2000
    0.0000    0.0000    0.0000 O   0  0
    0.0000    0.0000    0.0000 C   0  0
    0.0000    0.0000    0.0000 C   0  0
    0.0000    0.0000    0.0000 C   0  0
    0.0000    0.0000    0.0000 C   0  0
    0.0000    0.0000    0.0000 C   0  0
    0.0000    0.0000    0.0000 C   0  0
    0.0000    0.0000    0.0000 C   0  0
    0.0000    0.0000    0.0000 C   0  0
    0.0000    0.0000    0.0000 F   0  0
    0.0000    0.0000    0.0000 F   0  0
    0.0000    0.0000    0.0000 F   0  0
    0.0000    0.0000    0.0000 C   0  0
    0.0000    0.0000    0.0000 C   0  0
    0.0000    0.0000    0.0000 C   0  0
    0.0000    0.0000    0.0000 C   0  0
    0.0000    0.0000    0.0000 C   0  0
    0.0000    0.0000    0.0000 N   0  0
    0.0000    0.0000    0.0000 C   0  0
    0.0000    0.0000    0.0000 O   0  0
    0.0000    0.0000    0.0000 N   0  0
    0.0000    0.0000    0.0000 C   0  0
    0.0000    0.0000    0.0000 C   0  0
    0.0000    0.0000    0.0000 C   0  0
    0.0000    0.0000    0.0000 C   0  0
    0.0000    0.0000    0.0000 N   0  0
    0.0000    0.0000    0.0000 N   0  0
    0.0000    0.0000    0.0000 C   0  0
    0.0000    0.0000    0.0000 C   0  0
    0.0000    0.0000    0.0000 C   0  0
    0.0000    0.0000    0.0000 F   0  0
  1  2  2  0
  2  3  1  0
  3  4  1  0
  4  5  1  0
  5  6  2  3
  6  7  1  0
  7  8  2  3
  8  9  1  0
  9 10  1  0
  9 11  1  0
  9 12  1  0
  8 13  1  0
 13 14  2  3
 14  5  1  0
  4 15  1  0
  3 16  2  3
 16 17  1  0
 16 18  1  0
 18 19  1  0
 19 15  1  0
 19 20  2  0
  2 21  1  0
 21 22  1  0
 22 23  2  3
 23 24  1  0
 24 25  2  3
 25 26  1  0
 26 27  1  0
 27 28  2  3
 28 24  1  0
 25 29  1  0
 29 30  2  3
 30 22  1  0
 30 31  1  0
M  END
> <smiles>
O=C(C(C(C1=CC=C(C(F)(F)F)C=C1)C2)=C(C)NC2=O)NC3=CC4=C(NN=C4)C=C3F

> <facility_reagent_id>
HMSL10012

> <salt_id>
101

> <chemical_name>
GSK429286A

> <inchi>
InChI=1S/C21H16F4N4O2/c1-10-19(20(31)28-17-6-12-9-26-29-16(12)8-15(17)22)14(7-18(30)27-10)11-2-4-13(5-3-11)21(23,24)25/h2-6,8-9,14H,7H2,1H3,(H,26,29)(H,27,30)(H,28,31)

> <inchi_key>

> <chebi_id>

> <lincs_id>

> <pubchem_cid>
n/a

> <chembl_id>
n/a

> <molecular_mass>
432.37

> <molecular_formula>
C21H16F4N4O2

$$$$

  SciTegic08031211342D

 38 42  0  0  1  0            999 V2000
    0.0000    0.0000    0.0000 O   0  0
    0.0000    0.0000    0.0000 C   0  0
    0.0000    0.0000    0.0000 C   0  0
    0.0000    0.0000    0.0000 C   0  0
    0.0000    0.0000    0.0000 O   0  0
    0.0000    0.0000    0.0000 C   0  0  1  0  0  0
    0.0000    0.0000    0.0000 C   0  0
    0.0000    0.0000    0.0000 C   0  0
    0.0000    0.0000    0.0000 C   0  0
    0.0000    0.0000    0.0000 C   0  0
    0.0000    0.0000    0.0000 C   0  0
    0.0000    0.0000    0.0000 C   0  0
    0.0000    0.0000    0.0000 C   0  0
    0.0000    0.0000    0.0000 F   0  0
    0.0000    0.0000    0.0000 F   0  0
    0.0000    0.0000    0.0000 F   0  0
    0.0000    0.0000    0.0000 C   0  0
    0.0000    0.0000    0.0000 C   0  0
    0.0000    0.0000    0.0000 C   0  0
    0.0000    0.0000    0.0000 N   0  0
    0.0000    0.0000    0.0000 C   0  0
    0.0000    0.0000    0.0000 C   0  0
    0.0000    0.0000    0.0000 C   0  0
    0.0000    0.0000    0.0000 C   0  0
    0.0000    0.0000    0.0000 N   0  0
    0.0000    0.0000    0.0000 C   0  0
    0.0000    0.0000    0.0000 C   0  0
    0.0000    0.0000    0.0000 N   0  0
    0.0000    0.0000    0.0000 C   0  0
    0.0000    0.0000    0.0000 C   0  0
    0.0000    0.0000    0.0000 C   0  0
    0.0000    0.0000    0.0000 C   0  0
    0.0000    0.0000    0.0000 C   0  0
    0.0000    0.0000    0.0000 C   0  0
    0.0000    0.0000    0.0000 N   0  0
    0.0000    0.0000    0.0000 C   0  0
    0.0000    0.0000    0.0000 S   0  0
    0.0000    0.0000    0.0000 N   0  0
  1  2  2  0
  2  3  1  0
  3  4  2  3
  4  5  1  0
  5  6  1  0
  6  7  1  0
  7  8  2  3
  8  9  1  0
  9 10  2  3
 10 11  1  0
 11 12  2  3
 12  7  1  0
 12 13  1  0
 13 14  1  0
 13 15  1  0
 13 16  1  0
  6 17  1  1
  4 18  1  0
 18 19  2  3
 19 20  1  0
 20 21  1  0
 21 22  2  3
 22 23  1  0
 23 24  1  0
 24 25  1  0
 25 26  1  0
 26 27  1  0
 27 28  1  0
 28 29  1  0
 28 30  1  0
 30 31  1  0
 31 25  1  0
 23 32  2  3
 32 33  1  0
 33 34  2  3
 34 21  1  0
 34 35  1  0
 35 36  2  3
 36 20  1  0
 19 37  1  0
 37  3  1  0
  2 38  1  0
M  END
> <smiles>
O=C(C1=C(O[C@@H](C2=CC=CC=C2C(F)(F)F)C)C=C(N3C4=CC(CN5CCN(C)CC5)=CC=C4N=C3)S1)N

> <facility_reagent_id>
HMSL10013

> <salt_id>
101

> <chemical_name>
GSK461364

> <inchi>
InChI=1S/C27H28F3N5O2S/c1-17(19-5-3-4-6-20(19)27(28,29)30)37-23-14-24(38-25(23)26(31)36)35-16-32-21-8-7-18(13-22(21)35)15-34-11-9-33(2)10-12-34/h3-8,13-14,16-17H,9-12,15H2,1-2H3,(H2,31,36)/t17-/m1/s1

> <inchi_key>

> <chebi_id>

> <lincs_id>

> <pubchem_cid>
n/a

> <chembl_id>
n/a

> <molecular_mass>
543.6

> <molecular_formula>
C27H28F3N5O2S

$$$$

  SciTegic08031211342D

 33 36  0  0  0  0            999 V2000
    0.0000    0.0000    0.0000 O   0  0
    0.0000    0.0000    0.0000 C   0  0
    0.0000    0.0000    0.0000 C   0  0
    0.0000    0.0000    0.0000 C   0  0
    0.0000    0.0000    0.0000 O   0  0
    0.0000    0.0000    0.0000 C   0  0
    0.0000    0.0000    0.0000 C   0  0
    0.0000    0.0000    0.0000 C   0  0
    0.0000    0.0000    0.0000 C   0  0
    0.0000    0.0000    0.0000 C   0  0
    0.0000    0.0000    0.0000 C   0  0
    0.0000    0.0000    0.0000 C   0  0
    0.0000    0.0000    0.0000 C   0  0
    0.0000    0.0000    0.0000 F   0  0
    0.0000    0.0000    0.0000 F   0  0
    0.0000    0.0000    0.0000 F   0  0
    0.0000    0.0000    0.0000 C   0  0
    0.0000    0.0000    0.0000 C   0  0
    0.0000    0.0000    0.0000 N   0  0
    0.0000    0.0000    0.0000 C   0  0
    0.0000    0.0000    0.0000 C   0  0
    0.0000    0.0000    0.0000 C   0  0
    0.0000    0.0000    0.0000 O   0  0
    0.0000    0.0000    0.0000 C   0  0
    0.0000    0.0000    0.0000 C   0  0
    0.0000    0.0000    0.0000 O   0  0
    0.0000    0.0000    0.0000 C   0  0
    0.0000    0.0000    0.0000 C   0  0
    0.0000    0.0000    0.0000 C   0  0
    0.0000    0.0000    0.0000 N   0  0
    0.0000    0.0000    0.0000 C   0  0
    0.0000    0.0000    0.0000 S   0  0
    0.0000    0.0000    0.0000 N   0  0
  1  2  2  0
  2  3  1  0
  3  4  2  3
  4  5  1  0
  5  6  1  0
  6  7  1  0
  7  8  2  3
  8  9  1  0
  9 10  2  3
 10 11  1  0
 11 12  2  3
 12  7  1  0
 12 13  1  0
 13 14  1  0
 13 15  1  0
 13 16  1  0
  4 17  1  0
 17 18  2  3
 18 19  1  0
 19 20  1  0
 20 21  2  3
 21 22  1  0
 22 23  1  0
 23 24  1  0
 22 25  2  3
 25 26  1  0
 26 27  1  0
 25 28  1  0
 28 29  2  3
 29 20  1  0
 29 30  1  0
 30 31  2  3
 31 19  1  0
 18 32  1  0
 32  3  1  0
  2 33  1  0
M  END
> <smiles>
O=C(C1=C(OCC2=CC=CC=C2C(F)(F)F)C=C(N3C4=CC(OC)=C(OC)C=C4N=C3)S1)N

> <facility_reagent_id>
HMSL10014

> <salt_id>
101

> <chemical_name>
GW843682

> <inchi>
InChI=1S/C22H18F3N3O4S/c1-30-16-7-14-15(8-17(16)31-2)28(11-27-14)19-9-18(20(33-19)21(26)29)32-10-12-5-3-4-6-13(12)22(23,24)25/h3-9,11H,10H2,1-2H3,(H2,26,29)

> <inchi_key>

> <chebi_id>

> <lincs_id>

> <pubchem_cid>
n/a

> <chembl_id>
n/a

> <molecular_mass>
477.46

> <molecular_formula>
C22H18F3N3O4S

$$$$

  SciTegic08031211342D

 33 36  0  0  0  0            999 V2000
    0.0000    0.0000    0.0000 C   0  0
    0.0000    0.0000    0.0000 C   0  0
    0.0000    0.0000    0.0000 C   0  0
    0.0000    0.0000    0.0000 S   0  0
    0.0000    0.0000    0.0000 C   0  0
    0.0000    0.0000    0.0000 C   0  0
    0.0000    0.0000    0.0000 C   0  0
    0.0000    0.0000    0.0000 C   0  0
    0.0000    0.0000    0.0000 C   0  0
    0.0000    0.0000    0.0000 C   0  0
    0.0000    0.0000    0.0000 N   0  0
    0.0000    0.0000    0.0000 C   0  0
    0.0000    0.0000    0.0000 C   0  0
    0.0000    0.0000    0.0000 C   0  0
    0.0000    0.0000    0.0000 C   0  0
    0.0000    0.0000    0.0000 N   0  0
    0.0000    0.0000    0.0000 C   0  0
    0.0000    0.0000    0.0000 N   0  0
    0.0000    0.0000    0.0000 C   0  0
    0.0000    0.0000    0.0000 N   0  0
    0.0000    0.0000    0.0000 C   0  0
    0.0000    0.0000    0.0000 C   0  0
    0.0000    0.0000    0.0000 C   0  0
    0.0000    0.0000    0.0000 C   0  0
    0.0000    0.0000    0.0000 C   0  0
    0.0000    0.0000    0.0000 N   0  0
    0.0000    0.0000    0.0000 C   0  0
    0.0000    0.0000    0.0000 O   0  0
    0.0000    0.0000    0.0000 C   0  0
    0.0000    0.0000    0.0000 N   0  0
    0.0000    0.0000    0.0000 C   0  0
    0.0000    0.0000    0.0000 O   0  0
    0.0000    0.0000    0.0000 O   0  0
  1  2  1  0
  2  3  1  0
  2  4  1  0
  4  5  1  0
  5  6  1  0
  6  7  2  3
  7  8  1  0
  8  9  2  3
  5 10  2  3
 10  9  1  0
 10 11  1  0
 11 12  1  0
 12 13  2  3
 13 14  1  0
 14 15  2  3
 15 16  1  0
 13 17  1  0
 17 16  1  0
 17 18  2  3
 18 19  1  0
 19 20  1  0
 20 21  1  0
 21 22  2  3
 22 23  1  0
 23 24  2  3
 24 25  1  0
 25 26  1  0
 26 27  1  0
 25 28  2  0
 24 29  1  0
 29 30  2  3
 30 21  1  0
 19 31  2  3
 31 12  1  0
  4 32  2  0
  4 33  2  0
M  END
> <smiles>
CC(C)S(C(C=CC=C1)=C1NC2=C(C=CN3)C3=NC(NC4=CC=C(C(NC)=O)C=N4)=C2)(=O)=O

> <facility_reagent_id>
HMSL10015

> <salt_id>
101

> <chemical_name>
HG-5-113-01

> <inchi>
InChI=1S/C23H24N6O3S/c1-14(2)33(31,32)19-7-5-4-6-17(19)27-18-12-21(29-22-16(18)10-11-25-22)28-20-9-8-15(13-26-20)23(30)24-3/h4-14H,1-3H3,(H,24,30)(H3,25,26,27,28,29)

> <inchi_key>

> <chebi_id>

> <lincs_id>

> <pubchem_cid>
n/a

> <chembl_id>
n/a

> <molecular_mass>
464.54

> <molecular_formula>
C23H24N6O3S

$$$$

  SciTegic08031211342D

 39 42  0  0  0  0            999 V2000
    0.0000    0.0000    0.0000 C   0  0
    0.0000    0.0000    0.0000 C   0  0
    0.0000    0.0000    0.0000 C   0  0
    0.0000    0.0000    0.0000 S   0  0
    0.0000    0.0000    0.0000 C   0  0
    0.0000    0.0000    0.0000 C   0  0
    0.0000    0.0000    0.0000 C   0  0
    0.0000    0.0000    0.0000 C   0  0
    0.0000    0.0000    0.0000 C   0  0
    0.0000    0.0000    0.0000 C   0  0
    0.0000    0.0000    0.0000 N   0  0
    0.0000    0.0000    0.0000 C   0  0
    0.0000    0.0000    0.0000 C   0  0
    0.0000    0.0000    0.0000 Cl  0  0
    0.0000    0.0000    0.0000 C   0  0
    0.0000    0.0000    0.0000 N   0  0
    0.0000    0.0000    0.0000 N   0  0
    0.0000    0.0000    0.0000 C   0  0
    0.0000    0.0000    0.0000 N   0  0
    0.0000    0.0000    0.0000 C   0  0
    0.0000    0.0000    0.0000 C   0  0
    0.0000    0.0000    0.0000 O   0  0
    0.0000    0.0000    0.0000 C   0  0
    0.0000    0.0000    0.0000 C   0  0
    0.0000    0.0000    0.0000 C   0  0
    0.0000    0.0000    0.0000 N   0  0
    0.0000    0.0000    0.0000 C   0  0
    0.0000    0.0000    0.0000 C   0  0
    0.0000    0.0000    0.0000 C   0  0
    0.0000    0.0000    0.0000 C   0  0
    0.0000    0.0000    0.0000 N   0  0
    0.0000    0.0000    0.0000 O   0  0
    0.0000    0.0000    0.0000 C   0  0
    0.0000    0.0000    0.0000 C   0  0
    0.0000    0.0000    0.0000 C   0  0
    0.0000    0.0000    0.0000 C   0  0
    0.0000    0.0000    0.0000 N   0  0
    0.0000    0.0000    0.0000 O   0  0
    0.0000    0.0000    0.0000 O   0  0
  1  2  1  0
  2  3  1  0
  2  4  1  0
  4  5  1  0
  5  6  1  0
  6  7  2  3
  7  8  1  0
  8  9  2  3
  5 10  2  3
 10  9  1  0
 10 11  1  0
 11 12  1  0
 12 13  2  3
 13 14  1  0
 13 15  1  0
 15 16  1  0
 15 17  2  3
 17 18  1  0
 18 19  1  0
 19 20  1  0
 20 21  2  3
 21 22  1  0
 22 23  1  0
 21 24  1  0
 24 25  2  3
 25 26  1  0
 26 27  1  0
 27 28  1  0
 28 29  1  0
 29 30  1  0
 30 31  1  0
 30 32  2  0
 29 33  1  0
 33 34  1  0
 34 26  1  0
 25 35  1  0
 35 36  2  3
 36 20  1  0
 18 37  2  3
 37 12  1  0
  4 38  2  0
  4 39  2  0
M  END
> <smiles>
CC(C)S(C(C=CC=C1)=C1NC2=C(Cl)C(N)=NC(NC3=C(OC)C=C(N4CCC(C(N)=O)CC4)C=C3)=N2)(=O)=O

> <facility_reagent_id>
HMSL10016

> <salt_id>
101

> <chemical_name>
HG-5-88-01

> <inchi>
InChI=1S/C26H32ClN7O4S/c1-15(2)39(36,37)21-7-5-4-6-19(21)30-25-22(27)23(28)32-26(33-25)31-18-9-8-17(14-20(18)38-3)34-12-10-16(11-13-34)24(29)35/h4-9,14-16H,10-13H2,1-3H3,(H2,29,35)(H4,28,30,31,32,33)

> <inchi_key>

> <chebi_id>

> <lincs_id>

> <pubchem_cid>
n/a

> <chembl_id>
n/a

> <molecular_mass>
574.09

> <molecular_formula>
C26H32ClN7O4S

$$$$

  SciTegic08031211342D

 42 46  0  0  0  0            999 V2000
    0.0000    0.0000    0.0000 C   0  0
    0.0000    0.0000    0.0000 C   0  0
    0.0000    0.0000    0.0000 C   0  0
    0.0000    0.0000    0.0000 C   0  0
    0.0000    0.0000    0.0000 C   0  0
    0.0000    0.0000    0.0000 C   0  0
    0.0000    0.0000    0.0000 N   0  0
    0.0000    0.0000    0.0000 C   0  0
    0.0000    0.0000    0.0000 C   0  0
    0.0000    0.0000    0.0000 C   0  0
    0.0000    0.0000    0.0000 C   0  0
    0.0000    0.0000    0.0000 C   0  0
    0.0000    0.0000    0.0000 N   0  0
    0.0000    0.0000    0.0000 C   0  0
    0.0000    0.0000    0.0000 C   0  0
    0.0000    0.0000    0.0000 N   0  0
    0.0000    0.0000    0.0000 C   0  0
    0.0000    0.0000    0.0000 C   0  0
    0.0000    0.0000    0.0000 C   0  0
    0.0000    0.0000    0.0000 C   0  0
    0.0000    0.0000    0.0000 C   0  0
    0.0000    0.0000    0.0000 C   0  0
    0.0000    0.0000    0.0000 F   0  0
    0.0000    0.0000    0.0000 F   0  0
    0.0000    0.0000    0.0000 F   0  0
    0.0000    0.0000    0.0000 C   0  0
    0.0000    0.0000    0.0000 O   0  0
    0.0000    0.0000    0.0000 C   0  0
    0.0000    0.0000    0.0000 C   0  0
    0.0000    0.0000    0.0000 C   0  0
    0.0000    0.0000    0.0000 C   0  0
    0.0000    0.0000    0.0000 C   0  0
    0.0000    0.0000    0.0000 C   0  0
    0.0000    0.0000    0.0000 O   0  0
    0.0000    0.0000    0.0000 C   0  0
    0.0000    0.0000    0.0000 C   0  0
    0.0000    0.0000    0.0000 C   0  0
    0.0000    0.0000    0.0000 N   0  0
    0.0000    0.0000    0.0000 C   0  0
    0.0000    0.0000    0.0000 C   0  0
    0.0000    0.0000    0.0000 N   0  0
    0.0000    0.0000    0.0000 C   0  0
  1  2  1  0
  2  3  2  3
  3  4  1  0
  4  5  2  3
  5  6  1  0
  6  7  1  0
  7  8  1  0
  8  9  2  3
  9 10  1  0
 10 11  2  3
 11 12  1  0
 12 13  1  0
 13 14  1  0
 14 15  1  0
 15 16  1  0
 16 17  1  0
 17 18  1  0
 16 19  1  0
 19 20  1  0
 20 13  1  0
 11 21  1  0
 21 22  1  0
 22 23  1  0
 22 24  1  0
 22 25  1  0
 21 26  2  3
 26  8  1  0
  6 27  2  0
  5 28  1  0
 28 29  2  3
 29  2  1  0
 29 30  1  0
 30 31  2  3
 31 32  1  0
 32 33  2  3
 33 34  1  0
 34 35  1  0
 33 36  1  0
 36 37  2  3
 37 38  1  0
 38 39  1  0
 39 40  2  3
 40 36  1  0
 37 41  1  0
 41 42  2  3
 42 32  1  0
M  END
> <smiles>
CC1=CC=C(C(NC2=CC=C(CN3CCN(CC)CC3)C(C(F)(F)F)=C2)=O)C=C1/C=C/C4=C(OC)C5=C(NC=C5)N=C4

> <facility_reagent_id>
HMSL10017

> <salt_id>
101

> <chemical_name>
HG-6-64-01; KIN001-206

> <inchi>
InChI=1S/C32H34F3N5O2/c1-4-39-13-15-40(16-14-39)20-25-9-10-26(18-28(25)32(33,34)35)38-31(41)23-6-5-21(2)22(17-23)7-8-24-19-37-30-27(11-12-36-30)29(24)42-3/h5-12,17-19H,4,13-16,20H2,1-3H3,(H,36,37)(H,3
8,41)/b8-7+

> <inchi_key>

> <chebi_id>

> <lincs_id>

> <pubchem_cid>
n/a

> <chembl_id>
n/a

> <molecular_mass>
577.64

> <molecular_formula>
C32H34F3N5O2

$$$$

  SciTegic08031211342D

 40 43  0  0  0  0            999 V2000
    0.0000    0.0000    0.0000 Cl  0  0
    0.0000    0.0000    0.0000 C   0  0
    0.0000    0.0000    0.0000 C   0  0
    0.0000    0.0000    0.0000 O   0  0
    0.0000    0.0000    0.0000 C   0  0
    0.0000    0.0000    0.0000 C   0  0
    0.0000    0.0000    0.0000 N   0  0
    0.0000    0.0000    0.0000 C   0  0
    0.0000    0.0000    0.0000 C   0  0
    0.0000    0.0000    0.0000 C   0  0
    0.0000    0.0000    0.0000 C   0  0
    0.0000    0.0000    0.0000 C   0  0
    0.0000    0.0000    0.0000 C   0  0
    0.0000    0.0000    0.0000 C   0  0
    0.0000    0.0000    0.0000 N   0  0
    0.0000    0.0000    0.0000 C   0  0
    0.0000    0.0000    0.0000 C   0  0
    0.0000    0.0000    0.0000 C   0  0
    0.0000    0.0000    0.0000 N   0  0
    0.0000    0.0000    0.0000 C   0  0
    0.0000    0.0000    0.0000 N   0  0
    0.0000    0.0000    0.0000 C   0  0
    0.0000    0.0000    0.0000 C   0  0
    0.0000    0.0000    0.0000 C   0  0
    0.0000    0.0000    0.0000 O   0  0
    0.0000    0.0000    0.0000 C   0  0
    0.0000    0.0000    0.0000 C   0  0
    0.0000    0.0000    0.0000 C   0  0
    0.0000    0.0000    0.0000 N   0  0
    0.0000    0.0000    0.0000 C   0  0
    0.0000    0.0000    0.0000 C   0  0
    0.0000    0.0000    0.0000 C   0  0
    0.0000    0.0000    0.0000 C   0  0
    0.0000    0.0000    0.0000 N   0  0
    0.0000    0.0000    0.0000 C   0  0
    0.0000    0.0000    0.0000 C   0  0
    0.0000    0.0000    0.0000 O   0  0
    0.0000    0.0000    0.0000 C   0  0
    0.0000    0.0000    0.0000 C   0  0
    0.0000    0.0000    0.0000 C   0  0
  1  2  1  0
  2  3  2  3
  3  4  1  0
  4  5  1  0
  5  6  1  0
  6  7  2  3
  7  8  1  0
  8  9  2  3
  9 10  1  0
 10 11  2  3
 11  6  1  0
  3 12  1  0
 12 13  2  3
 13 14  1  0
 14 15  1  0
 15 16  1  0
 16 17  2  3
 17 18  1  0
 18 19  3  0
 17 20  1  0
 20 21  2  3
 21 22  1  0
 22 23  2  3
 23 24  1  0
 24 25  1  0
 25 26  1  0
 26 27  1  0
 24 28  2  3
 28 29  1  0
 29 30  1  0
 30 31  1  0
 31 32  2  3
 32 33  1  0
 33 34  1  0
 34 35  1  0
 34 36  1  0
 30 37  2  0
 28 38  1  0
 38 39  2  3
 39 22  1  0
 39 16  1  0
 14 40  2  3
 40  2  1  0
M  END
> <smiles>
ClC1=C(OCC4=NC=CC=C4)C=CC(NC3=C(C#N)C=NC2=CC(OCC)=C(NC(/C=C/CN(C)C)=O)C=C23)=C1

> <facility_reagent_id>
HMSL10018

> <salt_id>
101

> <chemical_name>
HKI-272; Neratinib

> <inchi>
InChI=1S/C30H29ClN6O3/c1-4-39-28-16-25-23(15-26(28)36-29(38)9-7-13-37(2)3)30(20(17-32)18-34-25)35-21-10-11-27(24(31)14-21)40-19-22-8-5-6-12-33-22/h5-12,14-16,18H,4,13,19H2,1-3H3,(H,34,35)(H,36,38)/b9-
7+

> <inchi_key>

> <chebi_id>

> <lincs_id>

> <pubchem_cid>
9915743

> <chembl_id>
180022

> <molecular_mass>
556.2

> <molecular_formula>
C30H29ClN6O3

$$$$

  SciTegic08031211342D

 41 46  0  0  0  0            999 V2000
    0.0000    0.0000    0.0000 O   0  0
    0.0000    0.0000    0.0000 C   0  0
    0.0000    0.0000    0.0000 N   0  0
    0.0000    0.0000    0.0000 C   0  0
    0.0000    0.0000    0.0000 C   0  0
    0.0000    0.0000    0.0000 C   0  0
    0.0000    0.0000    0.0000 C   0  0
    0.0000    0.0000    0.0000 F   0  0
    0.0000    0.0000    0.0000 F   0  0
    0.0000    0.0000    0.0000 F   0  0
    0.0000    0.0000    0.0000 C   0  0
    0.0000    0.0000    0.0000 N   0  0
    0.0000    0.0000    0.0000 C   0  0
    0.0000    0.0000    0.0000 C   0  0
    0.0000    0.0000    0.0000 N   0  0
    0.0000    0.0000    0.0000 C   0  0
    0.0000    0.0000    0.0000 C   0  0
    0.0000    0.0000    0.0000 C   0  0
    0.0000    0.0000    0.0000 C   0  0
    0.0000    0.0000    0.0000 C   0  0
    0.0000    0.0000    0.0000 C   0  0
    0.0000    0.0000    0.0000 C   0  0
    0.0000    0.0000    0.0000 C   0  0
    0.0000    0.0000    0.0000 C   0  0
    0.0000    0.0000    0.0000 C   0  0
    0.0000    0.0000    0.0000 C   0  0
    0.0000    0.0000    0.0000 C   0  0
    0.0000    0.0000    0.0000 C   0  0
    0.0000    0.0000    0.0000 C   0  0
    0.0000    0.0000    0.0000 O   0  0
    0.0000    0.0000    0.0000 C   0  0
    0.0000    0.0000    0.0000 C   0  0
    0.0000    0.0000    0.0000 C   0  0
    0.0000    0.0000    0.0000 O   0  0
    0.0000    0.0000    0.0000 C   0  0
    0.0000    0.0000    0.0000 C   0  0
    0.0000    0.0000    0.0000 C   0  0
    0.0000    0.0000    0.0000 C   0  0
    0.0000    0.0000    0.0000 C   0  0
    0.0000    0.0000    0.0000 N   0  0
    0.0000    0.0000    0.0000 C   0  0
  1  2  2  0
  2  3  1  0
  3  4  1  0
  4  5  2  3
  5  6  1  0
  6  7  1  0
  7  8  1  0
  7  9  1  0
  7 10  1  0
  6 11  2  3
 11 12  1  0
 12 13  1  0
 13 14  1  0
 14 15  1  0
 15 16  1  0
 16 17  1  0
 17 12  1  0
 11 18  1  0
 18 19  2  3
 19  4  1  0
  2 20  1  0
 20 21  2  3
 21 22  1  0
 22 23  2  3
 23  3  1  0
 23 24  1  0
 24 25  2  3
 25 26  1  0
 26 27  1  0
 27 28  2  3
 28 29  1  0
 29 30  1  0
 30 31  1  0
 29 32  2  3
 32 33  1  0
 33 34  1  0
 34 35  1  0
 33 36  2  3
 36 27  1  0
 26 37  2  3
 37 38  1  0
 38 39  2  3
 39 24  1  0
 39 40  1  0
 40 41  2  3
 41 22  1  0
M  END
> <smiles>
O=C(N3C4=CC(C(F)(F)F)=C(N6CCNCC6)C=C4)C=CC2=C3C1=CC(C5=CC(OC)=CC(OC)=C5)=CC=C1N=C2

> <facility_reagent_id>
HMSL10019

> <salt_id>
101

> <chemical_name>
JW-7-24-1

> <inchi>
InChI=1S/C31H27F3N4O3/c1-40-23-13-21(14-24(17-23)41-2)19-3-6-27-25(15-19)30-20(18-36-27)4-8-29(39)38(30)22-5-7-28(26(16-22)31(32,33)34)37-11-9-35-10-12-37/h3-8,13-18,35H,9-12H2,1-2H3

> <inchi_key>

> <chebi_id>

> <lincs_id>

> <pubchem_cid>
n/a

> <chembl_id>
n/a

> <molecular_mass>
560.57

> <molecular_formula>
C31H27F3N4O3

$$$$

  SciTegic08031211342D

 33 36  0  0  0  0            999 V2000
    0.0000    0.0000    0.0000 O   0  0
    0.0000    0.0000    0.0000 C   0  0
    0.0000    0.0000    0.0000 N   0  0
    0.0000    0.0000    0.0000 C   0  0
    0.0000    0.0000    0.0000 C   0  0
    0.0000    0.0000    0.0000 Cl  0  0
    0.0000    0.0000    0.0000 C   0  0
    0.0000    0.0000    0.0000 C   0  0
    0.0000    0.0000    0.0000 C   0  0
    0.0000    0.0000    0.0000 C   0  0
    0.0000    0.0000    0.0000 C   0  0
    0.0000    0.0000    0.0000 C   0  0
    0.0000    0.0000    0.0000 S   0  0
    0.0000    0.0000    0.0000 C   0  0
    0.0000    0.0000    0.0000 N   0  0
    0.0000    0.0000    0.0000 C   0  0
    0.0000    0.0000    0.0000 N   0  0
    0.0000    0.0000    0.0000 C   0  0
    0.0000    0.0000    0.0000 C   0  0
    0.0000    0.0000    0.0000 C   0  0
    0.0000    0.0000    0.0000 N   0  0
    0.0000    0.0000    0.0000 C   0  0
    0.0000    0.0000    0.0000 C   0  0
    0.0000    0.0000    0.0000 N   0  0
    0.0000    0.0000    0.0000 C   0  0
    0.0000    0.0000    0.0000 C   0  0
    0.0000    0.0000    0.0000 O   0  0
    0.0000    0.0000    0.0000 C   0  0
    0.0000    0.0000    0.0000 C   0  0
    0.0000    0.0000    0.0000 N   0  0
    0.0000    0.0000    0.0000 C   0  0
    0.0000    0.0000    0.0000 C   0  0
    0.0000    0.0000    0.0000 N   0  0
  1  2  2  0
  2  3  1  0
  3  4  1  0
  4  5  2  3
  5  6  1  0
  5  7  1  0
  7  8  2  3
  8  9  1  0
  9 10  2  3
 10  4  1  0
 10 11  1  0
  2 12  1  0
 12 13  1  0
 12 14  2  3
 14 15  1  0
 15 16  2  3
 16 13  1  0
 16 17  1  0
 17 18  1  0
 18 19  2  3
 19 20  1  0
 20 21  1  0
 21 22  1  0
 22 23  1  0
 23 24  1  0
 24 25  1  0
 25 26  1  0
 26 27  1  0
 24 28  1  0
 28 29  1  0
 29 21  1  0
 20 30  2  3
 30 31  1  0
 31 32  1  0
 31 33  2  3
 33 18  1  0
M  END
> <smiles>
O=C(NC4=C(Cl)C=CC=C4C)C(S2)=CN=C2NC1=CC(N3CCN(CCO)CC3)=NC(C)=N1

> <facility_reagent_id>
HMSL10020

> <salt_id>
101

> <chemical_name>
Dasatinib; BMS-354825; Sprycel

> <inchi>
InChI=1S/C22H26ClN7O2S/c1-14-4-3-5-16(23)20(14)28-21(32)17-13-24-22(33-17)27-18-12-19(26-15(2)25-18)30-8-6-29(7-9-30)10-11-31/h3-5,12-13,31H,6-11H2,1-2H3,(H,28,32)(H,24,25,26,27)

> <inchi_key>

> <chebi_id>

> <lincs_id>

> <pubchem_cid>
3062316

> <chembl_id>
1421

> <molecular_mass>
488.01

> <molecular_formula>
C22H26ClN7O2S

$$$$

  SciTegic08031211342D

 33 37  0  0  0  0            999 V2000
    0.0000    0.0000    0.0000 C   0  0
    0.0000    0.0000    0.0000 C   0  0
    0.0000    0.0000    0.0000 N   0  0
    0.0000    0.0000    0.0000 N   0  0
    0.0000    0.0000    0.0000 C   0  0
    0.0000    0.0000    0.0000 N   0  0
    0.0000    0.0000    0.0000 C   0  0
    0.0000    0.0000    0.0000 N   0  0
    0.0000    0.0000    0.0000 C   0  0
    0.0000    0.0000    0.0000 S   0  0
    0.0000    0.0000    0.0000 C   0  0
    0.0000    0.0000    0.0000 C   0  0
    0.0000    0.0000    0.0000 C   0  0
    0.0000    0.0000    0.0000 C   0  0
    0.0000    0.0000    0.0000 N   0  0
    0.0000    0.0000    0.0000 C   0  0
    0.0000    0.0000    0.0000 C   0  0
    0.0000    0.0000    0.0000 C   0  0
    0.0000    0.0000    0.0000 C   0  0
    0.0000    0.0000    0.0000 O   0  0
    0.0000    0.0000    0.0000 C   0  0
    0.0000    0.0000    0.0000 C   0  0
    0.0000    0.0000    0.0000 N   0  0
    0.0000    0.0000    0.0000 C   0  0
    0.0000    0.0000    0.0000 N   0  0
    0.0000    0.0000    0.0000 C   0  0
    0.0000    0.0000    0.0000 C   0  0
    0.0000    0.0000    0.0000 N   0  0
    0.0000    0.0000    0.0000 C   0  0
    0.0000    0.0000    0.0000 C   0  0
    0.0000    0.0000    0.0000 C   0  0
    0.0000    0.0000    0.0000 C   0  0
    0.0000    0.0000    0.0000 C   0  0
  1  2  1  0
  2  3  2  3
  3  4  1  0
  4  5  1  0
  5  6  1  0
  6  7  1  0
  7  8  2  3
  8  9  1  0
  9 10  1  0
 10 11  1  0
 11 12  2  3
 12 13  1  0
 13 14  2  3
 14 15  1  0
 15 16  1  0
 16 17  1  0
 17 18  1  0
 18 19  1  0
 19 17  1  0
 16 20  2  0
 14 21  1  0
 21 22  2  3
 22 11  1  0
  9 23  2  3
 23 24  1  0
 24 25  1  0
 25 26  1  0
 26 27  1  0
 27 28  1  0
 28 29  1  0
 28 30  1  0
 30 31  1  0
 31 25  1  0
 24 32  2  3
 32  7  1  0
  5 33  2  3
 33  2  1  0
M  END
> <smiles>
CC1=NNC(NC2=NC(SC4=CC=C(NC(C5CC5)=O)C=C4)=NC(N3CCN(C)CC3)=C2)=C1

> <facility_reagent_id>
HMSL10021

> <salt_id>
101

> <chemical_name>
VX680; Tozasertib; MK-0457

> <inchi>
InChI=1S/C23H28N8OS/c1-15-13-20(29-28-15)25-19-14-21(31-11-9-30(2)10-12-31)27-23(26-19)33-18-7-5-17(6-8-18)24-22(32)16-3-4-16/h5-8,13-14,16H,3-4,9-12H2,1-2H3,(H,24,32)(H2,25,26,27,28,29)

> <inchi_key>

> <chebi_id>

> <lincs_id>

> <pubchem_cid>
5494449

> <chembl_id>
n/a

> <molecular_mass>
464.59

> <molecular_formula>
C23H28N8OS

$$$$

  SciTegic08031211342D

 27 29  0  0  0  0            999 V2000
    0.0000    0.0000    0.0000 O   0  0
    0.0000    0.0000    0.0000 C   0  0
    0.0000    0.0000    0.0000 N   0  0
    0.0000    0.0000    0.0000 C   0  0
    0.0000    0.0000    0.0000 C   0  0
    0.0000    0.0000    0.0000 C   0  0
    0.0000    0.0000    0.0000 C   0  0
    0.0000    0.0000    0.0000 C   0  0
    0.0000    0.0000    0.0000 C   0  0
    0.0000    0.0000    0.0000 N   0  0
    0.0000    0.0000    0.0000 C   0  0
    0.0000    0.0000    0.0000 C   0  0
    0.0000    0.0000    0.0000 C   0  0
    0.0000    0.0000    0.0000 C   0  0
    0.0000    0.0000    0.0000 O   0  0
    0.0000    0.0000    0.0000 C   0  0
    0.0000    0.0000    0.0000 F   0  0
    0.0000    0.0000    0.0000 F   0  0
    0.0000    0.0000    0.0000 F   0  0
    0.0000    0.0000    0.0000 C   0  0
    0.0000    0.0000    0.0000 C   0  0
    0.0000    0.0000    0.0000 N   0  0
    0.0000    0.0000    0.0000 C   0  0
    0.0000    0.0000    0.0000 N   0  0
    0.0000    0.0000    0.0000 C   0  0
    0.0000    0.0000    0.0000 C   0  0
    0.0000    0.0000    0.0000 C   0  0
  1  2  2  0
  2  3  1  0
  2  4  1  0
  4  5  2  3
  5  6  1  0
  6  7  1  0
  7  8  2  3
  8  9  1  0
  9 10  1  0
 10 11  1  0
 11 12  2  3
 12 13  1  0
 13 14  2  3
 14 15  1  0
 15 16  1  0
 16 17  1  0
 16 18  1  0
 16 19  1  0
 14 20  1  0
 20 21  2  3
 21 11  1  0
  9 22  2  3
 22 23  1  0
 23 24  2  3
 24  7  1  0
  6 25  2  3
 25 26  1  0
 26 27  2  3
 27  4  1  0
M  END
> <smiles>
O=C(N)C1=CC(C2=CC(NC3=CC=C(OC(F)(F)F)C=C3)=NC=N2)=CC=C1

> <facility_reagent_id>
HMSL10022

> <salt_id>
101

> <chemical_name>
GNF2

> <inchi>
InChI=1S/C18H13F3N4O2/c19-18(20,21)27-14-6-4-13(5-7-14)25-16-9-15(23-10-24-16)11-2-1-3-12(8-11)17(22)26/h1-10H,(H2,22,26)(H,23,24,25)

> <inchi_key>

> <chebi_id>

> <lincs_id>

> <pubchem_cid>
5311510

> <chembl_id>
483847

> <molecular_mass>
374.32

> <molecular_formula>
C18H13F3N4O2

$$$$

  SciTegic08031211342D

 42 45  0  0  0  0            999 V2000
    0.0000    0.0000    0.0000 C   0  0
    0.0000    0.0000    0.0000 C   0  0
    0.0000    0.0000    0.0000 C   0  0
    0.0000    0.0000    0.0000 N   0  0
    0.0000    0.0000    0.0000 C   0  0
    0.0000    0.0000    0.0000 N   0  0
    0.0000    0.0000    0.0000 C   0  0
    0.0000    0.0000    0.0000 C   0  0
    0.0000    0.0000    0.0000 C   0  0
    0.0000    0.0000    0.0000 C   0  0
    0.0000    0.0000    0.0000 C   0  0
    0.0000    0.0000    0.0000 C   0  0
    0.0000    0.0000    0.0000 C   0  0
    0.0000    0.0000    0.0000 N   0  0
    0.0000    0.0000    0.0000 C   0  0
    0.0000    0.0000    0.0000 N   0  0
    0.0000    0.0000    0.0000 C   0  0
    0.0000    0.0000    0.0000 C   0  0
    0.0000    0.0000    0.0000 N   0  0
    0.0000    0.0000    0.0000 C   0  0
    0.0000    0.0000    0.0000 C   0  0
    0.0000    0.0000    0.0000 C   0  0
    0.0000    0.0000    0.0000 C   0  0
    0.0000    0.0000    0.0000 C   0  0
    0.0000    0.0000    0.0000 C   0  0
    0.0000    0.0000    0.0000 C   0  0
    0.0000    0.0000    0.0000 C   0  0
    0.0000    0.0000    0.0000 N   0  0
    0.0000    0.0000    0.0000 C   0  0
    0.0000    0.0000    0.0000 C   0  0
    0.0000    0.0000    0.0000 N   0  0
    0.0000    0.0000    0.0000 C   0  0
    0.0000    0.0000    0.0000 C   0  0
    0.0000    0.0000    0.0000 C   0  0
    0.0000    0.0000    0.0000 O   0  0
    0.0000    0.0000    0.0000 C   0  0
    0.0000    0.0000    0.0000 C   0  0
    0.0000    0.0000    0.0000 C   0  0
    0.0000    0.0000    0.0000 S   0  0
    0.0000    0.0000    0.0000 O   0  0
    0.0000    0.0000    0.0000 O   0  0
    0.0000    0.0000    0.0000 O   0  0
  1  2  1  0
  2  3  2  3
  3  4  1  0
  4  5  1  0
  5  6  2  3
  6  7  1  0
  7  8  2  3
  8  9  1  0
  9 10  1  0
 10 11  2  3
 11 12  1  0
 12 13  2  3
 13 14  1  0
 14 15  2  3
 15 10  1  0
  9 16  2  3
 16  5  1  0
  3 17  1  0
 17 18  2  3
 18 19  1  0
 19 20  1  0
 20 21  1  0
 21 22  2  3
 22 23  1  0
 23 24  2  3
 24 25  1  0
 25 26  2  3
 26 21  1  0
 24 27  1  0
 27 28  1  0
 28 29  1  0
 29 30  1  0
 30 31  1  0
 31 32  1  0
 32 33  1  0
 33 28  1  0
 31 34  1  0
 20 35  2  0
 18 36  1  0
 36 37  2  3
 37  2  1  0
 38 39  1  0
 39 40  2  0
 39 41  1  0
 39 42  2  0
M  END
> <smiles>
CC1=C(NC2=NC=CC(C3=CC=CN=C3)=N2)C=C(NC(C4=CC=C(C=C4)CN5CCN(CC5)C)=O)C=C1.CS(=O)(O)=O

> <facility_reagent_id>
HMSL10023

> <salt_id>
101

> <chemical_name>
Imatinib; Gleevec; Glivec; CGP-57148B; STI-571

> <inchi>
InChI=1S/C29H31N7O.CH4O3S/c1-21-5-10-25(18-27(21)34-29-31-13-11-26(33-29)24-4-3-12-30-19-24)32-28(37)23-8-6-22(7-9-23)20-36-16-14-35(2)15-17-36;1-5(2,3)4/h3-13,18-19H,14-17,20H2,1-2H3,(H,32,37)(H,31,3
3,34);1H3,(H,2,3,4)

> <inchi_key>

> <chebi_id>

> <lincs_id>

> <pubchem_cid>
5291

> <chembl_id>
941

> <molecular_mass>
589.72

> <molecular_formula>
C30H35N7O4S

$$$$

  SciTegic08031211342D

 42 46  0  0  0  0            999 V2000
    0.0000    0.0000    0.0000 C   0  0
    0.0000    0.0000    0.0000 O   0  0
    0.0000    0.0000    0.0000 C   0  0
    0.0000    0.0000    0.0000 C   0  0
    0.0000    0.0000    0.0000 N   0  0
    0.0000    0.0000    0.0000 C   0  0
    0.0000    0.0000    0.0000 N   0  0
    0.0000    0.0000    0.0000 C   0  0
    0.0000    0.0000    0.0000 N   0  0
    0.0000    0.0000    0.0000 C   0  0
    0.0000    0.0000    0.0000 C   0  0
    0.0000    0.0000    0.0000 S   0  0
    0.0000    0.0000    0.0000 O   0  0
    0.0000    0.0000    0.0000 C   0  0
    0.0000    0.0000    0.0000 C   0  0
    0.0000    0.0000    0.0000 C   0  0
    0.0000    0.0000    0.0000 O   0  0
    0.0000    0.0000    0.0000 C   0  0
    0.0000    0.0000    0.0000 C   0  0
    0.0000    0.0000    0.0000 C   0  0
    0.0000    0.0000    0.0000 C   0  0
    0.0000    0.0000    0.0000 C   0  0
    0.0000    0.0000    0.0000 Cl  0  0
    0.0000    0.0000    0.0000 C   0  0
    0.0000    0.0000    0.0000 N   0  0
    0.0000    0.0000    0.0000 C   0  0
    0.0000    0.0000    0.0000 C   0  0
    0.0000    0.0000    0.0000 C   0  0
    0.0000    0.0000    0.0000 N   0  0
    0.0000    0.0000    0.0000 C   0  0
    0.0000    0.0000    0.0000 C   0  0
    0.0000    0.0000    0.0000 C   0  0
    0.0000    0.0000    0.0000 N   0  0
    0.0000    0.0000    0.0000 C   0  0
    0.0000    0.0000    0.0000 C   0  0
    0.0000    0.0000    0.0000 N   0  0
    0.0000    0.0000    0.0000 C   0  0
    0.0000    0.0000    0.0000 C   0  0
    0.0000    0.0000    0.0000 C   0  0
    0.0000    0.0000    0.0000 C   0  0
    0.0000    0.0000    0.0000 C   0  0
    0.0000    0.0000    0.0000 C   0  0
  1  2  1  0
  2  3  1  0
  3  4  2  3
  4  5  1  0
  5  6  1  0
  6  7  2  3
  7  8  1  0
  8  9  1  0
  9 10  1  0
 10 11  2  3
 11 12  1  0
 12 13  2  0
 12 14  1  0
 14 15  1  0
 14 16  1  0
 12 17  2  0
 11 18  1  0
 18 19  2  3
 19 20  1  0
 20 21  2  3
 21 10  1  0
  8 22  2  3
 22 23  1  0
 22 24  1  0
 24 25  2  3
 25  6  1  0
  4 26  1  0
 26 27  2  3
 27 28  1  0
 28 29  1  0
 29 30  1  0
 30 31  1  0
 31 32  1  0
 32 33  1  0
 33 34  1  0
 34 35  1  0
 35 36  1  0
 36 37  1  0
 37 38  1  0
 38 33  1  0
 36 39  1  0
 32 40  1  0
 40 41  1  0
 41 29  1  0
 28 42  2  3
 42  3  1  0
M  END
> <smiles>
COC1=C(NC2=NC(NC3=C(S(=O)(C(C)C)=O)C=CC=C3)=C(Cl)C=N2)C=CC(N4CCC(N5CCN(CC5)C)CC4)=C1

> <facility_reagent_id>
HMSL10024

> <salt_id>
101

> <chemical_name>
NVP-TAE684

> <inchi>
InChI=1S/C30H40ClN7O3S/c1-21(2)42(39,40)28-8-6-5-7-26(28)33-29-24(31)20-32-30(35-29)34-25-10-9-23(19-27(25)41-4)37-13-11-22(12-14-37)38-17-15-36(3)16-18-38/h5-10,19-22H,11-18H2,1-4H3,(H2,32,33,34,35)

> <inchi_key>

> <chebi_id>

> <lincs_id>

> <pubchem_cid>
16038120

> <chembl_id>
509032

> <molecular_mass>
614.2

> <molecular_formula>
C30H40ClN7O3S

$$$$

  SciTegic08031211342D

 25 27  0  0  0  0            999 V2000
    0.0000    0.0000    0.0000 Cl  0  0
    0.0000    0.0000    0.0000 C   0  0
    0.0000    0.0000    0.0000 C   0  0
    0.0000    0.0000    0.0000 C   0  0
    0.0000    0.0000    0.0000 N   0  0
    0.0000    0.0000    0.0000 C   0  0
    0.0000    0.0000    0.0000 N   0  0
    0.0000    0.0000    0.0000 C   0  0
    0.0000    0.0000    0.0000 C   0  0
    0.0000    0.0000    0.0000 C   0  0
    0.0000    0.0000    0.0000 C   0  0
    0.0000    0.0000    0.0000 C   0  0
    0.0000    0.0000    0.0000 C   0  0
    0.0000    0.0000    0.0000 N   0  0
    0.0000    0.0000    0.0000 C   0  0
    0.0000    0.0000    0.0000 N   0  0
    0.0000    0.0000    0.0000 C   0  0
    0.0000    0.0000    0.0000 C   0  0
    0.0000    0.0000    0.0000 C   0  0
    0.0000    0.0000    0.0000 O   0  0
    0.0000    0.0000    0.0000 C   0  0
    0.0000    0.0000    0.0000 N   0  0
    0.0000    0.0000    0.0000 C   0  0
    0.0000    0.0000    0.0000 C   0  0
    0.0000    0.0000    0.0000 C   0  0
  1  2  1  0
  2  3  2  3
  3  4  1  0
  4  5  1  0
  5  6  1  0
  6  7  2  3
  7  8  1  0
  8  9  2  3
  9 10  1  0
 10 11  1  0
 11 12  2  3
 12 13  1  0
 13 14  2  3
 14 15  1  0
 15 16  1  0
 16 17  1  0
 17 18  1  0
 18 19  1  0
 19 20  1  0
 15 21  2  3
 21 11  1  0
 10 22  2  3
 22  6  1  0
  4 23  2  3
 23 24  1  0
 24 25  2  3
 25  2  1  0
M  END
> <smiles>
ClC1=CC(NC2=NC=CC(C3=CC=NC(NCCCO)=C3)=N2)=CC=C1

> <facility_reagent_id>
HMSL10025

> <salt_id>
101

> <chemical_name>
CGP60474; MLS000911536; SMR000463552

> <inchi>
InChI=1S/C18H18ClN5O/c19-14-3-1-4-15(12-14)23-18-22-9-6-16(24-18)13-5-8-21-17(11-13)20-7-2-10-25/h1,3-6,8-9,11-12,25H,2,7,10H2,(H,20,21)(H,22,23,24)

> <inchi_key>

> <chebi_id>

> <lincs_id>

> <pubchem_cid>
644215

> <chembl_id>
300389

> <molecular_mass>
355.82

> <molecular_formula>
C18H18ClN5O

$$$$

  SciTegic08031211342D

 38 40  0  0  0  0            999 V2000
    0.0000    0.0000    0.0000 C   0  0
    0.0000    0.0000    0.0000 C   0  0
    0.0000    0.0000    0.0000 N   0  0
    0.0000    0.0000    0.0000 C   0  0
    0.0000    0.0000    0.0000 C   0  0
    0.0000    0.0000    0.0000 C   0  0
    0.0000    0.0000    0.0000 C   0  0
    0.0000    0.0000    0.0000 C   0  0
    0.0000    0.0000    0.0000 C   0  0
    0.0000    0.0000    0.0000 N   0  0
    0.0000    0.0000    0.0000 C   0  0
    0.0000    0.0000    0.0000 N   0  0
    0.0000    0.0000    0.0000 C   0  0
    0.0000    0.0000    0.0000 C   0  0
    0.0000    0.0000    0.0000 C   0  0
    0.0000    0.0000    0.0000 N   0  0
    0.0000    0.0000    0.0000 C   0  0
    0.0000    0.0000    0.0000 C   0  0
    0.0000    0.0000    0.0000 C   0  0
    0.0000    0.0000    0.0000 C   0  0
    0.0000    0.0000    0.0000 C   0  0
    0.0000    0.0000    0.0000 O   0  0
    0.0000    0.0000    0.0000 C   0  0
    0.0000    0.0000    0.0000 C   0  0
    0.0000    0.0000    0.0000 C   0  0
    0.0000    0.0000    0.0000 O   0  0
    0.0000    0.0000    0.0000 C   0  0
    0.0000    0.0000    0.0000 C   0  0
    0.0000    0.0000    0.0000 C   0  0
    0.0000    0.0000    0.0000 N   0  0
    0.0000    0.0000    0.0000 C   0  0
    0.0000    0.0000    0.0000 N   0  0
    0.0000    0.0000    0.0000 C   0  0
    0.0000    0.0000    0.0000 C   0  0
    0.0000    0.0000    0.0000 C   0  0
    0.0000    0.0000    0.0000 C   0  0
    0.0000    0.0000    0.0000 O   0  0
    0.0000    0.0000    0.0000 N   0  0
  1  2  1  0
  2  3  1  0
  3  4  1  0
  4  5  1  0
  3  6  1  0
  6  7  1  0
  7  8  1  0
  8  9  1  0
  9 10  1  0
 10 11  1  0
 11 12  2  3
 12 13  1  0
 13 14  2  3
 14 15  1  0
 15 16  2  3
 16 11  1  0
 14 17  1  0
 17 18  2  3
 18 19  1  0
 19 20  2  3
 20 21  1  0
 21 22  1  0
 22 23  1  0
 21 24  2  3
 24 25  1  0
 25 26  1  0
 26 27  1  0
 25 28  2  3
 28 19  1  0
 18 29  1  0
 29 30  1  0
 30 31  1  0
 31 32  1  0
 32 33  1  0
 33 34  1  0
 33 35  1  0
 33 36  1  0
 31 37  2  0
 29 38  2  3
 38 13  1  0
M  END
> <smiles>
CCN(CC)CCCCNC2=NC1=C(C=N2)C=C(C3=CC(OC)=CC(OC)=C3)C(NC(NC(C)(C)C)=O)=N1

> <facility_reagent_id>
HMSL10026

> <salt_id>
101

> <chemical_name>
PD173074

> <inchi>
InChI=1S/C28H41N7O3/c1-8-35(9-2)13-11-10-12-29-26-30-18-20-16-23(19-14-21(37-6)17-22(15-19)38-7)25(31-24(20)32-26)33-27(36)34-28(3,4)5/h14-18H,8-13H2,1-7H3,(H3,29,30,31,32,33,34,36)

> <inchi_key>

> <chebi_id>

> <lincs_id>

> <pubchem_cid>
n/a

> <chembl_id>
n/a

> <molecular_mass>
523.67

> <molecular_formula>
C28H41N7O3

$$$$

  SciTegic08031211342D

 30 33  0  0  1  0            999 V2000
    0.0000    0.0000    0.0000 C   0  0
    0.0000    0.0000    0.0000 C   0  0  2  0  0  0
    0.0000    0.0000    0.0000 C   0  0
    0.0000    0.0000    0.0000 C   0  0
    0.0000    0.0000    0.0000 Cl  0  0
    0.0000    0.0000    0.0000 C   0  0
    0.0000    0.0000    0.0000 F   0  0
    0.0000    0.0000    0.0000 C   0  0
    0.0000    0.0000    0.0000 C   0  0
    0.0000    0.0000    0.0000 C   0  0
    0.0000    0.0000    0.0000 Cl  0  0
    0.0000    0.0000    0.0000 O   0  0
    0.0000    0.0000    0.0000 C   0  0
    0.0000    0.0000    0.0000 C   0  0
    0.0000    0.0000    0.0000 C   0  0
    0.0000    0.0000    0.0000 C   0  0
    0.0000    0.0000    0.0000 C   0  0
    0.0000    0.0000    0.0000 N   0  0
    0.0000    0.0000    0.0000 C   0  0
    0.0000    0.0000    0.0000 C   0  0
    0.0000    0.0000    0.0000 C   0  0
    0.0000    0.0000    0.0000 N   0  0
    0.0000    0.0000    0.0000 C   0  0
    0.0000    0.0000    0.0000 C   0  0
    0.0000    0.0000    0.0000 N   0  0
    0.0000    0.0000    0.0000 C   0  0
    0.0000    0.0000    0.0000 C   0  0
    0.0000    0.0000    0.0000 N   0  0
    0.0000    0.0000    0.0000 C   0  0
    0.0000    0.0000    0.0000 N   0  0
  2  1  1  1
  2  3  1  0
  3  4  2  3
  4  5  1  0
  4  6  1  0
  6  7  1  0
  6  8  2  3
  8  9  1  0
  9 10  2  3
 10  3  1  0
 10 11  1  0
  2 12  1  0
 12 13  1  0
 13 14  2  3
 14 15  1  0
 15 16  1  0
 16 17  2  3
 17 18  1  0
 18 19  1  0
 19 20  1  0
 20 21  1  0
 21 22  1  0
 22 23  1  0
 23 24  1  0
 24 19  1  0
 18 25  1  0
 25 26  2  3
 26 16  1  0
 15 27  2  3
 27 28  1  0
 28 29  2  3
 29 13  1  0
 29 30  1  0
M  END
> <smiles>
C[C@H](C2=C(Cl)C(F)=CC=C2Cl)OC1=CC(C3=CN(C4CCNCC4)N=C3)=CN=C1N

> <facility_reagent_id>
HMSL10027

> <salt_id>
101

> <chemical_name>
PF02341066; Crizotinib

> <inchi>
InChI=1S/C21H22Cl2FN5O/c1-12(19-16(22)2-3-17(24)20(19)23)30-18-8-13(9-27-21(18)25)14-10-28-29(11-14)15-4-6-26-7-5-15/h2-3,8-12,15,26H,4-7H2,1H3,(H2,25,27)/t12-/m1/s1

> <inchi_key>

> <chebi_id>

> <lincs_id>

> <pubchem_cid>
n/a

> <chembl_id>
n/a

> <molecular_mass>
450.34

> <molecular_formula>
C21H22Cl2FN5O

$$$$

  SciTegic08031211342D

 22 23  0  0  0  0            999 V2000
    0.0000    0.0000    0.0000 H   0  0
    0.0000    0.0000    0.0000 N   0  0
    0.0000    0.0000    0.0000 H   0  0
    0.0000    0.0000    0.0000 C   0  0
    0.0000    0.0000    0.0000 C   0  0
    0.0000    0.0000    0.0000 N   0  0
    0.0000    0.0000    0.0000 C   0  0
    0.0000    0.0000    0.0000 N   0  0
    0.0000    0.0000    0.0000 C   0  0
    0.0000    0.0000    0.0000 C   0  0
    0.0000    0.0000    0.0000 N   0  0
    0.0000    0.0000    0.0000 C   0  0
    0.0000    0.0000    0.0000 C   0  0
    0.0000    0.0000    0.0000 C   0  0
    0.0000    0.0000    0.0000 N   0  0
    0.0000    0.0000    0.0000 C   0  0
    0.0000    0.0000    0.0000 C   0  0
    0.0000    0.0000    0.0000 C   0  0
    0.0000    0.0000    0.0000 C   0  0
    0.0000    0.0000    0.0000 C   0  0
    0.0000    0.0000    0.0000 C   0  0
    0.0000    0.0000    0.0000 Cl  0  0
  1  2  1  0
  2  3  1  0
  2  4  1  0
  4  5  1  0
  5  6  1  0
  6  7  1  0
  7  8  2  3
  8  9  1  0
  9 10  2  3
 10 11  1  0
 11 12  1  0
 12 13  1  0
 12 14  2  3
 14 15  1  0
 15 16  2  3
 16 11  1  0
 16  7  1  0
 10 17  1  0
 17 18  2  3
 18 19  1  0
 18 20  1  0
 20 21  2  3
 21  9  1  0
M  END
> <smiles>
[H]N([H])CCNC1=NC2=C(N3C(C)=CN=C31)C=C(C)C=C2.Cl

> <facility_reagent_id>
HMSL10028

> <salt_id>
101

> <chemical_name>
BMS345541

> <inchi>
InChI=1S/C14H17N5.ClH/c1-9-3-4-11-12(7-9)19-10(2)8-17-14(19)13(18-11)16-6-5-15;/h3-4,7-8H,5-6,15H2,1-2H3,(H,16,18);1H

> <inchi_key>

> <chebi_id>

> <lincs_id>

> <pubchem_cid>
n/a

> <chembl_id>
n/a

> <molecular_mass>
291.78

> <molecular_formula>
C14H18ClN5

$$$$

  SciTegic08031211342D

 23 25  0  0  0  0            999 V2000
    0.0000    0.0000    0.0000 C   0  0
    0.0000    0.0000    0.0000 C   0  0
    0.0000    0.0000    0.0000 C   0  0
    0.0000    0.0000    0.0000 C   0  0
    0.0000    0.0000    0.0000 C   0  0
    0.0000    0.0000    0.0000 C   0  0
    0.0000    0.0000    0.0000 C   0  0
    0.0000    0.0000    0.0000 C   0  0
    0.0000    0.0000    0.0000 O   0  0
    0.0000    0.0000    0.0000 N   0  0
    0.0000    0.0000    0.0000 H   0  0
    0.0000    0.0000    0.0000 C   0  0
    0.0000    0.0000    0.0000 C   0  0
    0.0000    0.0000    0.0000 C   0  0
    0.0000    0.0000    0.0000 C   0  0
    0.0000    0.0000    0.0000 C   0  0
    0.0000    0.0000    0.0000 C   0  0
    0.0000    0.0000    0.0000 C   0  0
    0.0000    0.0000    0.0000 Br  0  0
    0.0000    0.0000    0.0000 O   0  0
    0.0000    0.0000    0.0000 H   0  0
    0.0000    0.0000    0.0000 Br  0  0
    0.0000    0.0000    0.0000 I   0  0
  1  2  2  3
  2  3  1  0
  3  4  2  3
  4  5  1  0
  5  6  2  3
  6  1  1  0
  6  7  1  0
  7  8  1  0
  8  9  2  0
  8 10  1  0
 10  5  1  0
 10 11  1  0
  7 12  2  3
 12 13  1  0
 13 14  2  3
 14 15  1  0
 15 16  2  3
 16 17  1  0
 17 18  2  3
 18 13  1  0
 17 19  1  0
 16 20  1  0
 20 21  1  0
 15 22  1  0
  2 23  1  0
M  END
> <smiles>
C1=C(C=CC2=C1C(C(=O)N2[H])=CC3=CC(=C(C(=C3)Br)O[H])Br)I

> <facility_reagent_id>
HMSL10029

> <salt_id>
101

> <chemical_name>
GW-5074

> <inchi>
InChI=1S/C15H8Br2INO2/c16-11-4-7(5-12(17)14(11)20)3-10-9-6-8(18)1-2-13(9)19-15(10)21/h1-6,20H,(H,19,21)

> <inchi_key>

> <chebi_id>

> <lincs_id>

> <pubchem_cid>
n/a

> <chembl_id>
n/a

> <molecular_mass>
520.9

> <molecular_formula>
C15H8Br2INO2

$$$$

  SciTegic08031211342D

 20 22  0  0  0  0            999 V2000
    0.0000    0.0000    0.0000 C   0  0
    0.0000    0.0000    0.0000 C   0  0
    0.0000    0.0000    0.0000 C   0  0
    0.0000    0.0000    0.0000 N   0  0
    0.0000    0.0000    0.0000 C   0  0
    0.0000    0.0000    0.0000 C   0  0
    0.0000    0.0000    0.0000 C   0  0
    0.0000    0.0000    0.0000 N   0  0
    0.0000    0.0000    0.0000 N   0  0
    0.0000    0.0000    0.0000 C   0  0
    0.0000    0.0000    0.0000 O   0  0
    0.0000    0.0000    0.0000 S   0  0
    0.0000    0.0000    0.0000 C   0  0
    0.0000    0.0000    0.0000 C   0  0
    0.0000    0.0000    0.0000 C   0  0
    0.0000    0.0000    0.0000 C   0  0
    0.0000    0.0000    0.0000 C   0  0
    0.0000    0.0000    0.0000 C   0  0
    0.0000    0.0000    0.0000 C   0  0
    0.0000    0.0000    0.0000 I   0  0
  1  2  2  3
  2  3  1  0
  3  4  2  3
  4  5  1  0
  5  6  2  3
  6  1  1  0
  1  7  1  0
  7  8  2  3
  8  9  1  0
  9 10  2  3
 10 11  1  0
 11  7  1  0
 10 12  1  0
 12 13  1  0
 13 14  1  0
 14 15  2  3
 15 16  1  0
 16 17  2  3
 17 18  1  0
 18 19  2  3
 19 14  1  0
 16 20  1  0
M  END
> <smiles>
C1(=CC=NC=C1)C2=NN=C(O2)SCC3=CC(=CC=C3)I

> <facility_reagent_id>
HMSL10030

> <salt_id>
101

> <chemical_name>
KIN001-042

> <inchi>
InChI=1S/C14H10IN3OS/c15-12-3-1-2-10(8-12)9-20-14-18-17-13(19-14)11-4-6-16-7-5-11/h1-8H,9H2

> <inchi_key>

> <chebi_id>

> <lincs_id>

> <pubchem_cid>
n/a

> <chembl_id>
n/a

> <molecular_mass>
395.22

> <molecular_formula>
C14H10IN3OS

$$$$

  SciTegic08031211342D

 25 28  0  0  0  0            999 V2000
    0.0000    0.0000    0.0000 C   0  0
    0.0000    0.0000    0.0000 C   0  0
    0.0000    0.0000    0.0000 C   0  0
    0.0000    0.0000    0.0000 C   0  0
    0.0000    0.0000    0.0000 C   0  0
    0.0000    0.0000    0.0000 C   0  0
    0.0000    0.0000    0.0000 C   0  0
    0.0000    0.0000    0.0000 C   0  0
    0.0000    0.0000    0.0000 N   0  0
    0.0000    0.0000    0.0000 H   0  0
    0.0000    0.0000    0.0000 C   0  0
    0.0000    0.0000    0.0000 C   0  0
    0.0000    0.0000    0.0000 C   0  0
    0.0000    0.0000    0.0000 C   0  0
    0.0000    0.0000    0.0000 C   0  0
    0.0000    0.0000    0.0000 C   0  0
    0.0000    0.0000    0.0000 C   0  0
    0.0000    0.0000    0.0000 Br  0  0
    0.0000    0.0000    0.0000 N   0  0
    0.0000    0.0000    0.0000 C   0  0
    0.0000    0.0000    0.0000 O   0  0
    0.0000    0.0000    0.0000 H   0  0
    0.0000    0.0000    0.0000 N   0  0
    0.0000    0.0000    0.0000 O   0  0
    0.0000    0.0000    0.0000 H   0  0
  1  2  2  3
  2  3  1  0
  3  4  2  3
  4  5  1  0
  5  6  2  3
  6  1  1  0
  6  7  1  0
  7  8  1  0
  8  9  1  0
  9  5  1  0
  9 10  1  0
  8 11  2  3
 11 12  1  0
 12 13  2  3
 13 14  1  0
 14 15  2  3
 15 16  1  0
 16 17  2  3
 17 12  1  0
 15 18  1  0
 13 19  1  0
 19 20  1  0
 20 11  1  0
 20 21  2  0
 19 22  1  0
  7 23  2  3
 23 24  1  0
 24 25  1  0
M  END
> <smiles>
C1=CC=CC2=C1C(\C(N2[H])=C4/C3=C(C=C(C=C3)Br)N(C4=O)[H])=NO[H]

> <facility_reagent_id>
HMSL10031

> <salt_id>
101

> <chemical_name>
KIN001-043

> <inchi>
InChI=1S/C16H10BrN3O2/c17-8-5-6-9-12(7-8)19-16(21)13(9)15-14(20-22)10-3-1-2-4-11(10)18-15/h1-7,18,22H,(H,19,21)/b15-13-,20-14?

> <inchi_key>

> <chebi_id>

> <lincs_id>

> <pubchem_cid>
n/a

> <chembl_id>
n/a

> <molecular_mass>
356.17

> <molecular_formula>
C16H10BrN3O2

$$$$

  SciTegic08031211342D

 38 43  0  0  0  0            999 V2000
    0.0000    0.0000    0.0000 Cl  0  0
    0.0000    0.0000    0.0000 C   0  0
    0.0000    0.0000    0.0000 C   0  0
    0.0000    0.0000    0.0000 C   0  0
    0.0000    0.0000    0.0000 C   0  0
    0.0000    0.0000    0.0000 C   0  0
    0.0000    0.0000    0.0000 O   0  0
    0.0000    0.0000    0.0000 C   0  0
    0.0000    0.0000    0.0000 O   0  0
    0.0000    0.0000    0.0000 C   0  0
    0.0000    0.0000    0.0000 N   0  0
    0.0000    0.0000    0.0000 C   0  0
    0.0000    0.0000    0.0000 N   0  0
    0.0000    0.0000    0.0000 C   0  0
    0.0000    0.0000    0.0000 N   0  0
    0.0000    0.0000    0.0000 C   0  0
    0.0000    0.0000    0.0000 C   0  0
    0.0000    0.0000    0.0000 C   0  0
    0.0000    0.0000    0.0000 O   0  0
    0.0000    0.0000    0.0000 C   0  0
    0.0000    0.0000    0.0000 C   0  0
    0.0000    0.0000    0.0000 N   0  0
    0.0000    0.0000    0.0000 C   0  0
    0.0000    0.0000    0.0000 C   0  0
    0.0000    0.0000    0.0000 N   0  0
    0.0000    0.0000    0.0000 C   0  0
    0.0000    0.0000    0.0000 C   0  0
    0.0000    0.0000    0.0000 C   0  0
    0.0000    0.0000    0.0000 C   0  0
    0.0000    0.0000    0.0000 C   0  0
    0.0000    0.0000    0.0000 O   0  0
    0.0000    0.0000    0.0000 C   0  0
    0.0000    0.0000    0.0000 C   0  0
    0.0000    0.0000    0.0000 C   0  0
    0.0000    0.0000    0.0000 O   0  0
    0.0000    0.0000    0.0000 C   0  0
    0.0000    0.0000    0.0000 C   0  0
    0.0000    0.0000    0.0000 C   0  0
  1  2  1  0
  2  3  1  0
  3  4  2  3
  4  5  1  0
  5  6  2  3
  6  7  1  0
  7  8  1  0
  8  9  1  0
  9  5  1  0
  2 10  2  3
 10  6  1  0
 10 11  1  0
 11 12  1  0
 12 13  2  3
 13 14  1  0
 14 15  2  3
 15 16  1  0
 16 17  2  3
 17 18  1  0
 18 19  1  0
 19 20  1  0
 20 21  1  0
 21 22  1  0
 22 23  1  0
 23 24  1  0
 24 25  1  0
 25 26  1  0
 25 27  1  0
 27 28  1  0
 28 22  1  0
 18 29  2  3
 29 30  1  0
 30 31  1  0
 31 32  1  0
 32 33  1  0
 33 34  1  0
 34 35  1  0
 35 36  1  0
 36 37  1  0
 37 32  1  0
 30 38  2  3
 38 16  1  0
 38 12  1  0
M  END
> <smiles>
ClC(C=CC4=C3OCO4)=C3NC2=NC=NC1=CC(OCCN6CCN(C)CC6)=CC(OC5CCOCC5)=C12

> <facility_reagent_id>
HMSL10032

> <salt_id>
101

> <chemical_name>
AZD0530; Saracatinib

> <inchi>
InChI=1S/C27H32ClN5O5/c1-32-6-8-33(9-7-32)10-13-35-19-14-21-24(23(15-19)38-18-4-11-34-12-5-18)27(30-16-29-21)31-25-20(28)2-3-22-26(25)37-17-36-22/h2-3,14-16,18H,4-13,17H2,1H3,(H,29,30,31)

> <inchi_key>

> <chebi_id>

> <lincs_id>

> <pubchem_cid>
n/a

> <chembl_id>
n/a

> <molecular_mass>
542.03

> <molecular_formula>
C27H32ClN5O5

$$$$

  SciTegic08031211342D

 24 26  0  0  0  0            999 V2000
    0.0000    0.0000    0.0000 Br  0  0
    0.0000    0.0000    0.0000 C   0  0
    0.0000    0.0000    0.0000 C   0  0
    0.0000    0.0000    0.0000 C   0  0
    0.0000    0.0000    0.0000 N   0  0
    0.0000    0.0000    0.0000 C   0  0
    0.0000    0.0000    0.0000 N   0  0
    0.0000    0.0000    0.0000 C   0  0
    0.0000    0.0000    0.0000 N   0  0
    0.0000    0.0000    0.0000 C   0  0
    0.0000    0.0000    0.0000 C   0  0
    0.0000    0.0000    0.0000 C   0  0
    0.0000    0.0000    0.0000 O   0  0
    0.0000    0.0000    0.0000 C   0  0
    0.0000    0.0000    0.0000 C   0  0
    0.0000    0.0000    0.0000 O   0  0
    0.0000    0.0000    0.0000 C   0  0
    0.0000    0.0000    0.0000 C   0  0
    0.0000    0.0000    0.0000 C   0  0
    0.0000    0.0000    0.0000 C   0  0
    0.0000    0.0000    0.0000 C   0  0
    0.0000    0.0000    0.0000 Br  0  0
    0.0000    0.0000    0.0000 C   0  0
    0.0000    0.0000    0.0000 O   0  0
  1  2  1  0
  2  3  2  3
  3  4  1  0
  4  5  1  0
  5  6  1  0
  6  7  2  3
  7  8  1  0
  8  9  2  3
  9 10  1  0
 10 11  2  3
 11 12  1  0
 12 13  1  0
 13 14  1  0
 12 15  2  3
 15 16  1  0
 16 17  1  0
 15 18  1  0
 18 19  2  3
 19 10  1  0
 19  6  1  0
  4 20  2  3
 20 21  1  0
 21 22  1  0
 21 23  2  3
 23  2  1  0
 23 24  1  0
M  END
> <smiles>
BrC1=CC(NC2=NC=NC3=CC(OC)=C(OC)C=C32)=CC(Br)=C1O

> <facility_reagent_id>
HMSL10033

> <salt_id>
101

> <chemical_name>
KIN001-055

> <inchi>
InChI=1S/C16H13Br2N3O3/c1-23-13-5-9-12(6-14(13)24-2)19-7-20-16(9)21-8-3-10(17)15(22)11(18)4-8/h3-7,22H,1-2H3,(H,19,20,21)

> <inchi_key>

> <chebi_id>

> <lincs_id>

> <pubchem_cid>
n/a

> <chembl_id>
n/a

> <molecular_mass>
455.1

> <molecular_formula>
C16H13Br2N3O3

$$$$

  SciTegic08031211342D

 27 30  0  0  0  0            999 V2000
    0.0000    0.0000    0.0000 N   0  0
    0.0000    0.0000    0.0000 C   0  0
    0.0000    0.0000    0.0000 C   0  0
    0.0000    0.0000    0.0000 C   0  0
    0.0000    0.0000    0.0000 N   0  0
    0.0000    0.0000    0.0000 C   0  0
    0.0000    0.0000    0.0000 C   0  0
    0.0000    0.0000    0.0000 C   0  0
    0.0000    0.0000    0.0000 C   0  0
    0.0000    0.0000    0.0000 C   0  0
    0.0000    0.0000    0.0000 C   0  0
    0.0000    0.0000    0.0000 S   0  0
    0.0000    0.0000    0.0000 C   0  0
    0.0000    0.0000    0.0000 C   0  0
    0.0000    0.0000    0.0000 C   0  0
    0.0000    0.0000    0.0000 N   0  0
    0.0000    0.0000    0.0000 C   0  0
    0.0000    0.0000    0.0000 N   0  0
    0.0000    0.0000    0.0000 C   0  0
    0.0000    0.0000    0.0000 C   0  0
    0.0000    0.0000    0.0000 C   0  0
    0.0000    0.0000    0.0000 C   0  0
    0.0000    0.0000    0.0000 C   0  0
    0.0000    0.0000    0.0000 C   0  0
    0.0000    0.0000    0.0000 N   0  0
    0.0000    0.0000    0.0000 C   0  0
    0.0000    0.0000    0.0000 N   0  0
  1  2  3  0
  2  3  1  0
  3  4  1  0
  4  5  2  3
  5  6  1  0
  6  7  2  3
  7  8  1  0
  8  9  2  3
  9 10  1  0
 10 11  2  3
 11  6  1  0
 11 12  1  0
 12  4  1  0
  3 13  1  0
 13 14  2  3
 14 15  1  0
 15 16  2  3
 16 17  1  0
 17 18  1  0
 18 19  1  0
 19 20  1  0
 20 21  1  0
 21 22  2  3
 22 23  1  0
 23 24  2  3
 24 25  1  0
 25 26  2  3
 26 21  1  0
 17 27  2  3
 27 13  1  0
M  END
> <smiles>
N#CC(C1=NC2=CC=CC=C2S1)C3=CC=NC(NCCC4=CC=CN=C4)=N3

> <facility_reagent_id>
HMSL10034

> <salt_id>
101

> <chemical_name>
AS601245

> <inchi>
InChI=1S/C20H16N6S/c21-12-15(19-25-17-5-1-2-6-18(17)27-19)16-8-11-24-20(26-16)23-10-7-14-4-3-9-22-13-14/h1-6,8-9,11,13,15H,7,10H2,(H,23,24,26)

> <inchi_key>

> <chebi_id>

> <lincs_id>

> <pubchem_cid>
n/a

> <chembl_id>
n/a

> <molecular_mass>
372.45

> <molecular_formula>
C20H16N6S

$$$$

  SciTegic08031211342D

 42 49  0  0  0  0            999 V2000
    0.0000    0.0000    0.0000 O   0  0
    0.0000    0.0000    0.0000 C   0  0
    0.0000    0.0000    0.0000 N   0  0
    0.0000    0.0000    0.0000 C   0  0
    0.0000    0.0000    0.0000 C   0  0
    0.0000    0.0000    0.0000 C   0  0
    0.0000    0.0000    0.0000 C   0  0
    0.0000    0.0000    0.0000 C   0  0
    0.0000    0.0000    0.0000 C   0  0
    0.0000    0.0000    0.0000 N   0  0
    0.0000    0.0000    0.0000 C   0  0
    0.0000    0.0000    0.0000 C   0  0
    0.0000    0.0000    0.0000 C   0  0
    0.0000    0.0000    0.0000 N   0  0
    0.0000    0.0000    0.0000 C   0  0
    0.0000    0.0000    0.0000 C   0  0
    0.0000    0.0000    0.0000 C   0  0
    0.0000    0.0000    0.0000 C   0  0
    0.0000    0.0000    0.0000 C   0  0
    0.0000    0.0000    0.0000 C   0  0
    0.0000    0.0000    0.0000 C   0  0
    0.0000    0.0000    0.0000 C   0  0
    0.0000    0.0000    0.0000 C   0  0
    0.0000    0.0000    0.0000 C   0  0
    0.0000    0.0000    0.0000 N   0  0
    0.0000    0.0000    0.0000 C   0  0
    0.0000    0.0000    0.0000 C   0  0
    0.0000    0.0000    0.0000 C   0  0
    0.0000    0.0000    0.0000 C   0  0
    0.0000    0.0000    0.0000 C   0  0
    0.0000    0.0000    0.0000 C   0  0
    0.0000    0.0000    0.0000 N   0  0
    0.0000    0.0000    0.0000 C   0  0
    0.0000    0.0000    0.0000 C   0  0
    0.0000    0.0000    0.0000 C   0  0
    0.0000    0.0000    0.0000 C   0  0
    0.0000    0.0000    0.0000 C   0  0
    0.0000    0.0000    0.0000 C   0  0
    0.0000    0.0000    0.0000 C   0  0
    0.0000    0.0000    0.0000 N   0  0
    0.0000    0.0000    0.0000 C   0  0
    0.0000    0.0000    0.0000 N   0  0
  1  2  2  0
  2  3  1  0
  3  4  1  0
  4  5  2  3
  5  6  1  0
  6  7  2  3
  7  8  1  0
  8  9  2  3
  9  4  1  0
  9 10  1  0
 10  2  1  0
 10 11  1  0
 11 12  1  0
 12 13  1  0
 13 14  1  0
 14 15  1  0
 15 16  1  0
 16 11  1  0
 14 17  1  0
 17 18  1  0
 18 19  2  3
 19 20  1  0
 20 21  2  3
 21 22  1  0
 22 23  2  3
 23 18  1  0
 21 24  1  0
 24 25  2  3
 25 26  1  0
 26 27  2  3
 27 28  1  0
 28 29  2  3
 29 30  1  0
 30 31  2  3
 31 26  1  0
 31 32  1  0
 32 33  2  3
 33 24  1  0
 33 34  1  0
 34 35  2  3
 35 36  1  0
 36 37  2  3
 37 38  1  0
 38 39  2  3
 39 34  1  0
 29 40  1  0
 40 41  2  3
 41 42  1  0
 42 28  1  0
M  END
> <smiles>
O=C1NC2=CC=CC=C2N1C3CCN(CC3)CC4=CC=C(C=C4)C5=NC6=CC7=C(C=C6N=C5C8=CC=CC=C8)N=CN7

> <facility_reagent_id>
HMSL10035

> <salt_id>
101

> <chemical_name>
KIN001-102

> <inchi>
InChI=1S/C34H29N7O/c42-34-39-26-8-4-5-9-31(26)41(34)25-14-16-40(17-15-25)20-22-10-12-24(13-11-22)33-32(23-6-2-1-3-7-23)37-29-18-27-28(36-21-35-27)19-30(29)38-33/h1-13,18-19,21,25H,14-17,20H2,(H,35,36)
(H,39,42)

> <inchi_key>

> <chebi_id>

> <lincs_id>

> <pubchem_cid>
n/a

> <chembl_id>
n/a

> <molecular_mass>
551.64

> <molecular_formula>
C34H29N7O

$$$$

  SciTegic08031211342D

 27 30  0  0  1  0            999 V2000
    0.0000    0.0000    0.0000 C   0  0
    0.0000    0.0000    0.0000 O   0  0
    0.0000    0.0000    0.0000 C   0  0
    0.0000    0.0000    0.0000 N   0  0
    0.0000    0.0000    0.0000 C   0  0
    0.0000    0.0000    0.0000 C   0  0
    0.0000    0.0000    0.0000 C   0  0
    0.0000    0.0000    0.0000 N   0  0
    0.0000    0.0000    0.0000 C   0  0
    0.0000    0.0000    0.0000 C   0  0
    0.0000    0.0000    0.0000 N   0  0
    0.0000    0.0000    0.0000 C   0  0
    0.0000    0.0000    0.0000 N   0  0
    0.0000    0.0000    0.0000 C   0  0  1  0  0  0
    0.0000    0.0000    0.0000 C   0  0
    0.0000    0.0000    0.0000 C   0  0
    0.0000    0.0000    0.0000 C   0  0  2  0  0  0
    0.0000    0.0000    0.0000 O   0  0
    0.0000    0.0000    0.0000 C   0  0
    0.0000    0.0000    0.0000 C   0  0
    0.0000    0.0000    0.0000 C   0  0
    0.0000    0.0000    0.0000 C   0  0
    0.0000    0.0000    0.0000 C   0  0
    0.0000    0.0000    0.0000 C   0  0
    0.0000    0.0000    0.0000 F   0  0
    0.0000    0.0000    0.0000 C   0  0
    0.0000    0.0000    0.0000 C   0  0
  1  2  1  0
  2  3  1  0
  3  4  2  3
  4  5  1  0
  5  6  2  3
  6  7  1  0
  7  8  2  3
  8  3  1  0
  7  9  1  0
  9 10  2  3
 10 11  1  0
 11 12  2  3
 12 13  1  0
 13  9  1  0
 14 13  1  1
 14 15  1  0
 15 16  1  0
 16 17  1  0
 17 18  1  1
 17 19  1  0
 19 20  1  0
 20 14  1  0
 10 21  1  0
 21 22  2  3
 22 23  1  0
 23 24  2  3
 24 25  1  0
 24 26  1  0
 26 27  2  3
 27 21  1  0
M  END
> <smiles>
COC1=NC=CC(=N1)C2=C(N=CN2[C@H]3CC[C@H](O)CC3)C4=CC=C(F)C=C4

> <facility_reagent_id>
HMSL10036

> <salt_id>
101

> <chemical_name>
SB 239063

> <inchi>
InChI=1S/C20H21FN4O2/c1-27-20-22-11-10-17(24-20)19-18(13-2-4-14(21)5-3-13)23-12-25(19)15-6-8-16(26)9-7-15/h2-5,10-12,15-16,26H,6-9H2,1H3/t15-,16-

> <inchi_key>

> <chebi_id>

> <lincs_id>

> <pubchem_cid>
n/a

> <chembl_id>
n/a

> <molecular_mass>
368.4

> <molecular_formula>
C20H21FN4O2

$$$$

  SciTegic08031211342D

 40 45  0  0  0  0            999 V2000
    0.0000    0.0000    0.0000 O   0  0
    0.0000    0.0000    0.0000 C   0  0
    0.0000    0.0000    0.0000 N   0  0
    0.0000    0.0000    0.0000 C   0  0
    0.0000    0.0000    0.0000 C   0  0
    0.0000    0.0000    0.0000 C   0  0
    0.0000    0.0000    0.0000 C   0  0
    0.0000    0.0000    0.0000 C   0  0
    0.0000    0.0000    0.0000 C   0  0
    0.0000    0.0000    0.0000 C   0  0
    0.0000    0.0000    0.0000 C   0  0
    0.0000    0.0000    0.0000 N   0  0
    0.0000    0.0000    0.0000 C   0  0
    0.0000    0.0000    0.0000 S   0  0
    0.0000    0.0000    0.0000 C   0  0
    0.0000    0.0000    0.0000 C   0  0
    0.0000    0.0000    0.0000 C   0  0
    0.0000    0.0000    0.0000 C   0  0
    0.0000    0.0000    0.0000 C   0  0
    0.0000    0.0000    0.0000 O   0  0
    0.0000    0.0000    0.0000 C   0  0
    0.0000    0.0000    0.0000 C   0  0
    0.0000    0.0000    0.0000 N   0  0
    0.0000    0.0000    0.0000 C   0  0
    0.0000    0.0000    0.0000 C   0  0
    0.0000    0.0000    0.0000 O   0  0
    0.0000    0.0000    0.0000 C   0  0
    0.0000    0.0000    0.0000 C   0  0
    0.0000    0.0000    0.0000 C   0  0
    0.0000    0.0000    0.0000 N   0  0
    0.0000    0.0000    0.0000 N   0  0
    0.0000    0.0000    0.0000 C   0  0
    0.0000    0.0000    0.0000 N   0  0
    0.0000    0.0000    0.0000 O   0  0
    0.0000    0.0000    0.0000 C   0  0
    0.0000    0.0000    0.0000 C   0  0
    0.0000    0.0000    0.0000 C   0  0
    0.0000    0.0000    0.0000 C   0  0
    0.0000    0.0000    0.0000 C   0  0
    0.0000    0.0000    0.0000 C   0  0
  1  2  2  0
  2  3  1  0
  3  4  1  0
  4  5  2  3
  5  6  1  0
  6  7  2  3
  7  8  1  0
  8  9  2  3
  9  4  1  0
  7 10  1  0
 10 11  2  3
 11 12  1  0
 12 13  1  0
 13 14  1  0
 14 15  1  0
 15 16  2  3
 16 12  1  0
 16 17  1  0
 17 18  2  3
 18 19  1  0
 19 20  1  0
 20 21  1  0
 21 22  1  0
 22 23  1  0
 23 24  1  0
 24 25  1  0
 25 26  1  0
 26 27  1  0
 27 28  1  0
 28 23  1  0
 19 29  2  3
 29 15  1  0
 13 30  2  3
 30 10  1  0
  2 31  1  0
 31 32  1  0
 32 33  2  3
 33 34  1  0
 34 35  1  0
 35 36  1  0
 36 37  1  0
 36 38  1  0
 36 39  1  0
 35 40  2  3
 40 32  1  0
M  END
> <smiles>
O=C(NC1=CC=C(C=C1)C2=CN3C(SC4=C3C=CC(OCCN5CCOCC5)=C4)=N2)NC6=NOC(C(C)(C)C)=C6

> <facility_reagent_id>
HMSL10037

> <salt_id>
101

> <chemical_name>
AC220

> <inchi>
InChI=1S/C29H32N6O4S/c1-29(2,3)25-17-26(33-39-25)32-27(36)30-20-6-4-19(5-7-20)22-18-35-23-9-8-21(16-24(23)40-28(35)31-22)38-15-12-34-10-13-37-14-11-34/h4-9,16-18H,10-15H2,1-3H3,(H2,30,32,33,36)

> <inchi_key>

> <chebi_id>

> <lincs_id>

> <pubchem_cid>
n/a

> <chembl_id>
n/a

> <molecular_mass>
570.22

> <molecular_formula>
C29H32N6O4S

$$$$

  SciTegic08031211342D

 42 46  0  0  0  0            999 V2000
    0.0000    0.0000    0.0000 O   0  0
    0.0000    0.0000    0.0000 C   0  0
    0.0000    0.0000    0.0000 O   0  0
    0.0000    0.0000    0.0000 C   0  0
    0.0000    0.0000    0.0000 C   0  0
    0.0000    0.0000    0.0000 C   0  0
    0.0000    0.0000    0.0000 C   0  0
    0.0000    0.0000    0.0000 C   0  0
    0.0000    0.0000    0.0000 C   0  0
    0.0000    0.0000    0.0000 C   0  0
    0.0000    0.0000    0.0000 C   0  0
    0.0000    0.0000    0.0000 N   0  0
    0.0000    0.0000    0.0000 C   0  0
    0.0000    0.0000    0.0000 C   0  0
    0.0000    0.0000    0.0000 C   0  0
    0.0000    0.0000    0.0000 C   0  0
    0.0000    0.0000    0.0000 O   0  0
    0.0000    0.0000    0.0000 C   0  0
    0.0000    0.0000    0.0000 C   0  0
    0.0000    0.0000    0.0000 C   0  0
    0.0000    0.0000    0.0000 O   0  0
    0.0000    0.0000    0.0000 C   0  0
    0.0000    0.0000    0.0000 C   0  0
    0.0000    0.0000    0.0000 N   0  0
    0.0000    0.0000    0.0000 C   0  0
    0.0000    0.0000    0.0000 N   0  0
    0.0000    0.0000    0.0000 C   0  0
    0.0000    0.0000    0.0000 C   0  0
    0.0000    0.0000    0.0000 C   0  0
    0.0000    0.0000    0.0000 C   0  0
    0.0000    0.0000    0.0000 N   0  0
    0.0000    0.0000    0.0000 C   0  0
    0.0000    0.0000    0.0000 C   0  0
    0.0000    0.0000    0.0000 N   0  0
    0.0000    0.0000    0.0000 C   0  0
    0.0000    0.0000    0.0000 C   0  0
    0.0000    0.0000    0.0000 C   0  0
    0.0000    0.0000    0.0000 C   0  0
    0.0000    0.0000    0.0000 C   0  0
    0.0000    0.0000    0.0000 N   0  0
    0.0000    0.0000    0.0000 C   0  0
    0.0000    0.0000    0.0000 C   0  0
  1  2  2  0
  2  3  1  0
  3  4  1  0
  4  5  2  3
  5  6  1  0
  5  7  1  0
  7  8  2  3
  8  9  1  0
  9 10  2  3
 10  4  1  0
 10 11  1  0
  2 12  1  0
 12 13  1  0
 13 14  2  3
 14 15  1  0
 15 16  2  3
 16 17  1  0
 17 18  1  0
 16 19  1  0
 19 20  2  3
 20 13  1  0
 20 21  1  0
 21 22  1  0
 12 23  1  0
 23 24  2  3
 24 25  1  0
 25 26  1  0
 26 27  1  0
 27 28  2  3
 28 29  1  0
 29 30  2  3
 30 31  1  0
 31 32  1  0
 32 33  1  0
 33 34  1  0
 34 35  1  0
 34 36  1  0
 36 37  1  0
 37 31  1  0
 30 38  1  0
 38 39  2  3
 39 27  1  0
 25 40  2  3
 40 41  1  0
 41 42  2  3
 42 23  1  0
M  END
> <smiles>
O=C(OC1=C(C)C=CC=C1C)N(C2=CC=C(OC)C=C2OC)C3=NC(NC4=CC=C(N5CCN(C)CC5)C=C4)=NC=C3

> <facility_reagent_id>
HMSL10038

> <salt_id>
101

> <chemical_name>
WH-4-023

> <inchi>
InChI=1S/C32H36N6O4/c1-22-7-6-8-23(2)30(22)42-32(39)38(27-14-13-26(40-4)21-28(27)41-5)29-15-16-33-31(35-29)34-24-9-11-25(12-10-24)37-19-17-36(3)18-20-37/h6-16,21H,17-20H2,1-5H3,(H,33,34,35)

> <inchi_key>

> <chebi_id>

> <lincs_id>

> <pubchem_cid>
n/a

> <chembl_id>
n/a

> <molecular_mass>
568.7

> <molecular_formula>
C32H36N6O4

$$$$

  SciTegic08031211342D

 54 59  0  0  0  0            999 V2000
    0.0000    0.0000    0.0000 O   0  0
    0.0000    0.0000    0.0000 C   0  0
    0.0000    0.0000    0.0000 O   0  0
    0.0000    0.0000    0.0000 C   0  0
    0.0000    0.0000    0.0000 C   0  0
    0.0000    0.0000    0.0000 C   0  0
    0.0000    0.0000    0.0000 C   0  0
    0.0000    0.0000    0.0000 N   0  0
    0.0000    0.0000    0.0000 C   0  0
    0.0000    0.0000    0.0000 C   0  0
    0.0000    0.0000    0.0000 C   0  0
    0.0000    0.0000    0.0000 C   0  0
    0.0000    0.0000    0.0000 C   0  0
    0.0000    0.0000    0.0000 C   0  0
    0.0000    0.0000    0.0000 F   0  0
    0.0000    0.0000    0.0000 F   0  0
    0.0000    0.0000    0.0000 F   0  0
    0.0000    0.0000    0.0000 C   0  0
    0.0000    0.0000    0.0000 O   0  0
    0.0000    0.0000    0.0000 C   0  0
    0.0000    0.0000    0.0000 C   0  0
    0.0000    0.0000    0.0000 C   0  0
    0.0000    0.0000    0.0000 C   0  0
    0.0000    0.0000    0.0000 N   0  0
    0.0000    0.0000    0.0000 C   0  0
    0.0000    0.0000    0.0000 C   0  0
    0.0000    0.0000    0.0000 C   0  0
    0.0000    0.0000    0.0000 C   0  0
    0.0000    0.0000    0.0000 O   0  0
    0.0000    0.0000    0.0000 C   0  0
    0.0000    0.0000    0.0000 C   0  0
    0.0000    0.0000    0.0000 C   0  0
    0.0000    0.0000    0.0000 O   0  0
    0.0000    0.0000    0.0000 C   0  0
    0.0000    0.0000    0.0000 C   0  0
    0.0000    0.0000    0.0000 N   0  0
    0.0000    0.0000    0.0000 C   0  0
    0.0000    0.0000    0.0000 N   0  0
    0.0000    0.0000    0.0000 C   0  0
    0.0000    0.0000    0.0000 C   0  0
    0.0000    0.0000    0.0000 C   0  0
    0.0000    0.0000    0.0000 C   0  0
    0.0000    0.0000    0.0000 N   0  0
    0.0000    0.0000    0.0000 C   0  0
    0.0000    0.0000    0.0000 C   0  0
    0.0000    0.0000    0.0000 N   0  0
    0.0000    0.0000    0.0000 C   0  0
    0.0000    0.0000    0.0000 C   0  0
    0.0000    0.0000    0.0000 C   0  0
    0.0000    0.0000    0.0000 C   0  0
    0.0000    0.0000    0.0000 C   0  0
    0.0000    0.0000    0.0000 N   0  0
    0.0000    0.0000    0.0000 C   0  0
    0.0000    0.0000    0.0000 C   0  0
  1  2  2  0
  2  3  1  0
  3  4  1  0
  4  5  2  3
  5  6  1  0
  6  7  1  0
  7  8  1  0
  8  9  1  0
  9 10  2  3
 10 11  1  0
 11 12  2  3
 12 13  1  0
 13 14  1  0
 14 15  1  0
 14 16  1  0
 14 17  1  0
 13 18  2  3
 18  9  1  0
  7 19  2  0
  6 20  2  3
 20 21  1  0
 21 22  2  3
 22  4  1  0
 22 23  1  0
  2 24  1  0
 24 25  1  0
 25 26  2  3
 26 27  1  0
 27 28  2  3
 28 29  1  0
 29 30  1  0
 28 31  1  0
 31 32  2  3
 32 25  1  0
 32 33  1  0
 33 34  1  0
 24 35  1  0
 35 36  2  3
 36 37  1  0
 37 38  1  0
 38 39  1  0
 39 40  2  3
 40 41  1  0
 41 42  2  3
 42 43  1  0
 43 44  1  0
 44 45  1  0
 45 46  1  0
 46 47  1  0
 46 48  1  0
 48 49  1  0
 49 43  1  0
 42 50  1  0
 50 51  2  3
 51 39  1  0
 37 52  2  3
 52 53  1  0
 53 54  2  3
 54 35  1  0
M  END
> <smiles>
O=C(OC1=CC(C(NC2=CC=CC(C(F)(F)F)=C2)=O)=CC=C1C)N(C3=CC=C(OC)C=C3OC)C4=NC(NC5=CC=C(N6CCN(C)CC6)C=C5)=NC=C4

> <facility_reagent_id>
HMSL10039

> <salt_id>
101

> <chemical_name>
WH-4-025

> <inchi>
InChI=1S/C39H38F3N7O5/c1-25-8-9-26(36(50)44-29-7-5-6-27(23-29)39(40,41)42)22-33(25)54-38(51)49(32-15-14-31(52-3)24-34(32)53-4)35-16-17-43-37(46-35)45-28-10-12-30(13-11-28)48-20-18-47(2)19-21-48/h5-17,
22-24H,18-21H2,1-4H3,(H,44,50)(H,43,45,46)

> <inchi_key>

> <chebi_id>

> <lincs_id>

> <pubchem_cid>
n/a

> <chembl_id>
n/a

> <molecular_mass>
741.8

> <molecular_formula>
C39H38F3N7O5

$$$$

  SciTegic08031211342D

 34 37  0  0  0  0            999 V2000
    0.0000    0.0000    0.0000 F   0  0
    0.0000    0.0000    0.0000 C   0  0
    0.0000    0.0000    0.0000 C   0  0
    0.0000    0.0000    0.0000 N   0  0
    0.0000    0.0000    0.0000 C   0  0
    0.0000    0.0000    0.0000 C   0  0
    0.0000    0.0000    0.0000 C   0  0
    0.0000    0.0000    0.0000 C   0  0
    0.0000    0.0000    0.0000 O   0  0
    0.0000    0.0000    0.0000 C   0  0
    0.0000    0.0000    0.0000 C   0  0
    0.0000    0.0000    0.0000 C   0  0
    0.0000    0.0000    0.0000 C   0  0
    0.0000    0.0000    0.0000 N   0  0
    0.0000    0.0000    0.0000 O   0  0
    0.0000    0.0000    0.0000 C   0  0
    0.0000    0.0000    0.0000 N   0  0
    0.0000    0.0000    0.0000 N   0  0
    0.0000    0.0000    0.0000 C   0  0
    0.0000    0.0000    0.0000 N   0  0
    0.0000    0.0000    0.0000 C   0  0
    0.0000    0.0000    0.0000 N   0  0
    0.0000    0.0000    0.0000 C   0  0
    0.0000    0.0000    0.0000 C   0  0
    0.0000    0.0000    0.0000 C   0  0
    0.0000    0.0000    0.0000 O   0  0
    0.0000    0.0000    0.0000 C   0  0
    0.0000    0.0000    0.0000 C   0  0
    0.0000    0.0000    0.0000 O   0  0
    0.0000    0.0000    0.0000 C   0  0
    0.0000    0.0000    0.0000 C   0  0
    0.0000    0.0000    0.0000 O   0  0
    0.0000    0.0000    0.0000 C   0  0
    0.0000    0.0000    0.0000 C   0  0
  1  2  1  0
  2  3  1  0
  3  4  1  0
  4  5  1  0
  5  6  2  3
  6  7  1  0
  7  8  2  3
  8  9  1  0
  9 10  1  0
 10 11  1  0
 10 12  1  0
 10 13  1  0
 13 14  1  0
 13 15  2  0
  8 16  1  0
 16 14  1  0
 16 17  2  3
 17  5  1  0
  3 18  2  3
  2 19  2  3
 19 20  1  0
 20 21  2  3
 21 18  1  0
 21 22  1  0
 22 23  1  0
 23 24  2  3
 24 25  1  0
 25 26  1  0
 26 27  1  0
 25 28  2  3
 28 29  1  0
 29 30  1  0
 28 31  1  0
 31 32  1  0
 32 33  1  0
 31 34  2  3
 34 23  1  0
M  END
> <smiles>
FC(C(NC1=CC=C(OC(C)(C)C(N2)=O)C2=N1)=N3)=CN=C3NC4=CC(OC)=C(OC)C(OC)=C4

> <facility_reagent_id>
HMSL10040

> <salt_id>
101

> <chemical_name>
R406

> <inchi>
InChI=1S/C22H23FN6O5/c1-22(2)20(30)28-19-13(34-22)6-7-16(27-19)26-18-12(23)10-24-21(29-18)25-11-8-14(31-3)17(33-5)15(9-11)32-4/h6-10H,1-5H3,(H3,24,25,26,27,28,29,30)

> <inchi_key>

> <chebi_id>

> <lincs_id>

> <pubchem_cid>
n/a

> <chembl_id>
n/a

> <molecular_mass>
470.2

> <molecular_formula>
C22H23FN6O5

$$$$

  SciTegic08031211342D

 38 42  0  0  1  0            999 V2000
    0.0000    0.0000    0.0000 C   0  0
    0.0000    0.0000    0.0000 N   0  0
    0.0000    0.0000    0.0000 C   0  0
    0.0000    0.0000    0.0000 C   0  0
    0.0000    0.0000    0.0000 N   0  0
    0.0000    0.0000    0.0000 C   0  0
    0.0000    0.0000    0.0000 C   0  0
    0.0000    0.0000    0.0000 C   0  0
    0.0000    0.0000    0.0000 C   0  0
    0.0000    0.0000    0.0000 C   0  0
    0.0000    0.0000    0.0000 C   0  0  2  0  0  0
    0.0000    0.0000    0.0000 C   0  0
    0.0000    0.0000    0.0000 C   0  0
    0.0000    0.0000    0.0000 N   0  0
    0.0000    0.0000    0.0000 C   0  0
    0.0000    0.0000    0.0000 N   0  0
    0.0000    0.0000    0.0000 C   0  0
    0.0000    0.0000    0.0000 C   0  0
    0.0000    0.0000    0.0000 O   0  0
    0.0000    0.0000    0.0000 C   0  0
    0.0000    0.0000    0.0000 C   0  0
    0.0000    0.0000    0.0000 C   0  0
    0.0000    0.0000    0.0000 C   0  0
    0.0000    0.0000    0.0000 N   0  0
    0.0000    0.0000    0.0000 C   0  0
    0.0000    0.0000    0.0000 C   0  0
    0.0000    0.0000    0.0000 C   0  0
    0.0000    0.0000    0.0000 N   0  0
    0.0000    0.0000    0.0000 C   0  0
    0.0000    0.0000    0.0000 C   0  0
    0.0000    0.0000    0.0000 C   0  0
    0.0000    0.0000    0.0000 O   0  0
    0.0000    0.0000    0.0000 C   0  0
    0.0000    0.0000    0.0000 C   0  0
    0.0000    0.0000    0.0000 N   0  0
    0.0000    0.0000    0.0000 C   0  0
    0.0000    0.0000    0.0000 C   0  0
    0.0000    0.0000    0.0000 O   0  0
  1  2  1  0
  2  3  1  0
  3  4  2  3
  4  5  1  0
  5  6  1  0
  6  7  1  0
  7  8  1  0
  8  9  1  0
  9 10  1  0
 10  6  1  0
  5 11  1  0
 11 12  1  1
 12 13  1  0
  4 14  1  0
 14 15  2  3
 15 16  1  0
 16 17  1  0
 17 18  2  3
 18 19  1  0
 19 20  1  0
 18 21  1  0
 21 22  2  3
 22 23  1  0
 23 24  1  0
 24 25  1  0
 25 26  1  0
 26 27  1  0
 27 28  1  0
 28 29  1  0
 28 30  1  0
 30 31  1  0
 31 25  1  0
 23 32  2  0
 22 33  1  0
 33 34  2  3
 34 17  1  0
 15 35  1  0
 35 36  2  3
 36  3  1  0
  2 37  1  0
 37 11  1  0
 37 38  2  0
M  END
> <smiles>
CN(C1=C(N(C2CCCC2)[C@@H]3CC)N=C(NC4=C(OC)C=C(C(NC5CCN(C)CC5)=O)C=C4)N=C1)C3=O

> <facility_reagent_id>
HMSL10041

> <salt_id>
101

> <chemical_name>
BI-2536; NPK33-1-98-1

> <inchi>
InChI=1S/C28H39N7O3/c1-5-22-27(37)34(3)23-17-29-28(32-25(23)35(22)20-8-6-7-9-20)31-21-11-10-18(16-24(21)38-4)26(36)30-19-12-14-33(2)15-13-19/h10-11,16-17,19-20,22H,5-9,12-15H2,1-4H3,(H,30,36)(H,29,31,
32)/t22-/m1/s1

> <inchi_key>

> <chebi_id>

> <lincs_id>

> <pubchem_cid>
n/a

> <chembl_id>
n/a

> <molecular_mass>
521.3

> <molecular_formula>
C28H39N7O3

$$$$

  SciTegic08031211342D

 28 31  0  0  0  0            999 V2000
    0.0000    0.0000    0.0000 O   0  0
    0.0000    0.0000    0.0000 C   0  0
    0.0000    0.0000    0.0000 N   0  0
    0.0000    0.0000    0.0000 C   0  0
    0.0000    0.0000    0.0000 C   0  0
    0.0000    0.0000    0.0000 C   0  0
    0.0000    0.0000    0.0000 C   0  0
    0.0000    0.0000    0.0000 C   0  0
    0.0000    0.0000    0.0000 C   0  0
    0.0000    0.0000    0.0000 C   0  0
    0.0000    0.0000    0.0000 C   0  0
    0.0000    0.0000    0.0000 N   0  0
    0.0000    0.0000    0.0000 C   0  0
    0.0000    0.0000    0.0000 C   0  0
    0.0000    0.0000    0.0000 C   0  0
    0.0000    0.0000    0.0000 C   0  0
    0.0000    0.0000    0.0000 N   0  0
    0.0000    0.0000    0.0000 C   0  0
    0.0000    0.0000    0.0000 C   0  0
    0.0000    0.0000    0.0000 C   0  0
    0.0000    0.0000    0.0000 C   0  0
    0.0000    0.0000    0.0000 N   0  0
    0.0000    0.0000    0.0000 C   0  0
    0.0000    0.0000    0.0000 C   0  0
    0.0000    0.0000    0.0000 N   0  0
    0.0000    0.0000    0.0000 C   0  0
    0.0000    0.0000    0.0000 C   0  0
    0.0000    0.0000    0.0000 C   0  0
  1  2  2  0
  2  3  1  0
  3  4  1  0
  4  5  2  3
  5  6  1  0
  6  7  2  3
  7  8  1  0
  8  9  1  0
  8 10  1  0
  8 11  1  0
 11 12  1  0
  7 13  1  0
 13 12  1  0
 13 14  2  3
 14  4  1  0
  2 15  1  0
 15 16  2  3
 16 17  1  0
 17 18  1  0
 18 19  1  0
 19 20  2  3
 20 21  1  0
 21 22  2  3
 22 23  1  0
 23 24  2  3
 24 19  1  0
 16 25  1  0
 25 26  2  3
 26 27  1  0
 27 28  2  3
 28 15  1  0
M  END
> <smiles>
O=C(NC1=CC=C(C(C)(C)CN2)C2=C1)C3=C(NCC4=CC=NC=C4)N=CC=C3

> <facility_reagent_id>
HMSL10042

> <salt_id>
101

> <chemical_name>
AMG706; Motesanib

> <inchi>
InChI=1S/C22H23N5O/c1-22(2)14-26-19-12-16(5-6-18(19)22)27-21(28)17-4-3-9-24-20(17)25-13-15-7-10-23-11-8-15/h3-12,26H,13-14H2,1-2H3,(H,24,25)(H,27,28)

> <inchi_key>

> <chebi_id>

> <lincs_id>

> <pubchem_cid>
n/a

> <chembl_id>
n/a

> <molecular_mass>
373.2

> <molecular_formula>
C22H23N5O

$$$$

  SciTegic08031211342D

 42 45  0  0  0  0            999 V2000
    0.0000    0.0000    0.0000 C   0  0
    0.0000    0.0000    0.0000 C   0  0
    0.0000    0.0000    0.0000 C   0  0
    0.0000    0.0000    0.0000 C   0  0
    0.0000    0.0000    0.0000 C   0  0
    0.0000    0.0000    0.0000 N   0  0
    0.0000    0.0000    0.0000 C   0  0
    0.0000    0.0000    0.0000 C   0  0
    0.0000    0.0000    0.0000 C   0  0
    0.0000    0.0000    0.0000 C   0  0
    0.0000    0.0000    0.0000 C   0  0
    0.0000    0.0000    0.0000 C   0  0
    0.0000    0.0000    0.0000 N   0  0
    0.0000    0.0000    0.0000 C   0  0
    0.0000    0.0000    0.0000 N   0  0
    0.0000    0.0000    0.0000 C   0  0
    0.0000    0.0000    0.0000 C   0  0
    0.0000    0.0000    0.0000 S   0  0
    0.0000    0.0000    0.0000 C   0  0
    0.0000    0.0000    0.0000 C   0  0
    0.0000    0.0000    0.0000 C   0  0
    0.0000    0.0000    0.0000 C   0  0
    0.0000    0.0000    0.0000 N   0  0
    0.0000    0.0000    0.0000 C   0  0
    0.0000    0.0000    0.0000 C   0  0
    0.0000    0.0000    0.0000 N   0  0
    0.0000    0.0000    0.0000 C   0  0
    0.0000    0.0000    0.0000 C   0  0
    0.0000    0.0000    0.0000 O   0  0
    0.0000    0.0000    0.0000 C   0  0
    0.0000    0.0000    0.0000 C   0  0
    0.0000    0.0000    0.0000 O   0  0
    0.0000    0.0000    0.0000 C   0  0
    0.0000    0.0000    0.0000 O   0  0
    0.0000    0.0000    0.0000 C   0  0
    0.0000    0.0000    0.0000 C   0  0
    0.0000    0.0000    0.0000 C   0  0
    0.0000    0.0000    0.0000 C   0  0
    0.0000    0.0000    0.0000 S   0  0
    0.0000    0.0000    0.0000 O   0  0
    0.0000    0.0000    0.0000 C   0  0
    0.0000    0.0000    0.0000 C   0  0
  1  2  1  0
  2  3  1  0
  3  4  1  0
  3  5  1  0
  2  6  1  0
  6  7  1  0
  7  8  1  0
  8  9  2  3
  9 10  1  0
 10 11  2  3
 11 12  1  0
 12 13  1  0
 13 14  1  0
 14 15  2  3
 15 16  1  0
 16 17  2  3
 17 18  1  0
 18 19  1  0
 19 20  2  3
 20 21  1  0
 21 22  1  0
 22 23  1  0
 23 24  1  0
 24 25  1  0
 25 26  1  0
 26 27  1  0
 27 28  1  0
 27 29  2  0
 26 30  1  0
 30 31  1  0
 31 23  1  0
 22 32  2  0
 21 33  2  3
 33 34  1  0
 34 35  1  0
 33 36  1  0
 36 37  2  3
 37 19  1  0
 37 38  1  0
 17 39  1  0
 39 14  1  0
 12 40  2  0
 11 41  1  0
 41 42  2  3
 42  8  1  0
M  END
> <smiles>
CC(C(C)C)NCC1=CC=C(C(NC2=NC=C(SC3=CC(C(N4CCN(C(C)=O)CC4)=O)=C(OC)C=C3C)S2)=O)C=C1

> <facility_reagent_id>
HMSL10043

> <salt_id>
101

> <chemical_name>
KIN001-127

> <inchi>
InChI=1S/C31H39N5O4S2/c1-19(2)21(4)32-17-23-7-9-24(10-8-23)29(38)34-31-33-18-28(42-31)41-27-16-25(26(40-6)15-20(27)3)30(39)36-13-11-35(12-14-36)22(5)37/h7-10,15-16,18-19,21,32H,11-14,17H2,1-6H3,(H,33,
34,38)

> <inchi_key>

> <chebi_id>

> <lincs_id>

> <pubchem_cid>
n/a

> <chembl_id>
n/a

> <molecular_mass>
609.2

> <molecular_formula>
C31H39N5O4S2

$$$$

  SciTegic08031211342D

 51 53  0  0  0  0            999 V2000
    0.0000    0.0000    0.0000 N   0  0
    0.0000    0.0000    0.0000 C   0  0
    0.0000    0.0000    0.0000 C   0  0
    0.0000    0.0000    0.0000 C   0  0
    0.0000    0.0000    0.0000 N   0  0
    0.0000    0.0000    0.0000 C   0  0
    0.0000    0.0000    0.0000 C   0  0
    0.0000    0.0000    0.0000 C   0  0
    0.0000    0.0000    0.0000 N   0  0
    0.0000    0.0000    0.0000 C   0  0
    0.0000    0.0000    0.0000 C   0  0
    0.0000    0.0000    0.0000 O   0  0
    0.0000    0.0000    0.0000 C   0  0
    0.0000    0.0000    0.0000 C   0  0
    0.0000    0.0000    0.0000 C   0  0
    0.0000    0.0000    0.0000 C   0  0
    0.0000    0.0000    0.0000 F   0  0
    0.0000    0.0000    0.0000 O   0  0
    0.0000    0.0000    0.0000 C   0  0
    0.0000    0.0000    0.0000 C   0  0
    0.0000    0.0000    0.0000 C   0  0
    0.0000    0.0000    0.0000 C   0  0
    0.0000    0.0000    0.0000 C   0  0
    0.0000    0.0000    0.0000 C   0  0
    0.0000    0.0000    0.0000 C   0  0
    0.0000    0.0000    0.0000 C   0  0
    0.0000    0.0000    0.0000 N   0  0
    0.0000    0.0000    0.0000 C   0  0
    0.0000    0.0000    0.0000 N   0  0
    0.0000    0.0000    0.0000 C   0  0
    0.0000    0.0000    0.0000 C   0  0
    0.0000    0.0000    0.0000 C   0  0
    0.0000    0.0000    0.0000 C   0  0
    0.0000    0.0000    0.0000 C   0  0
    0.0000    0.0000    0.0000 S   0  0
    0.0000    0.0000    0.0000 O   0  0
    0.0000    0.0000    0.0000 O   0  0
    0.0000    0.0000    0.0000 O   0  0
    0.0000    0.0000    0.0000 C   0  0
    0.0000    0.0000    0.0000 C   0  0
    0.0000    0.0000    0.0000 C   0  0
    0.0000    0.0000    0.0000 C   0  0
    0.0000    0.0000    0.0000 C   0  0
    0.0000    0.0000    0.0000 C   0  0
    0.0000    0.0000    0.0000 C   0  0
    0.0000    0.0000    0.0000 S   0  0
    0.0000    0.0000    0.0000 O   0  0
    0.0000    0.0000    0.0000 O   0  0
    0.0000    0.0000    0.0000 O   0  0
    0.0000    0.0000    0.0000 C   0  0
    0.0000    0.0000    0.0000 C   0  0
  1  2  1  0
  2  3  2  3
  3  4  1  0
  4  5  1  0
  5  6  1  0
  6  7  1  0
  7  8  1  0
  8  9  1  0
  9 10  1  0
 10 11  1  0
 11 12  1  0
 12 13  1  0
  5 14  1  0
 14 15  1  0
 15 16  1  0
 16 17  1  0
 15 18  2  0
 14 19  2  3
 19  3  1  0
 19 20  1  0
 20 21  2  3
 21 22  1  0
 22 23  2  3
 23 24  1  0
 23 25  1  0
 25 26  2  3
 26 20  1  0
  4 27  2  3
 27 28  1  0
 28 29  2  3
 29  2  1  0
 30 31  1  0
 31 32  2  3
 32 33  1  0
 33 34  2  3
 34 35  1  0
 35 36  2  0
 35 37  1  0
 35 38  2  0
 34 39  1  0
 39 40  2  3
 40 31  1  0
 41 42  1  0
 42 43  2  3
 43 44  1  0
 44 45  2  3
 45 46  1  0
 46 47  2  0
 46 48  1  0
 46 49  2  0
 45 50  1  0
 50 51  2  3
 51 42  1  0
M  END
> <smiles>
NC1=C2C(N(CCCNCCOC)C(C(CF)=O)=C2C3=CC=C(C)C=C3)=NC=N1.CC4=CC=C(S(=O)(O)=O)C=C4.CC5=CC=C(S(=O)(O)=O)C=C5

> <facility_reagent_id>
HMSL10044

> <salt_id>
101

> <chemical_name>
KIN001-242; FMK

> <inchi>
InChI=1S/C21H26FN5O2.2C7H8O3S/c1-14-4-6-15(7-5-14)17-18-20(23)25-13-26-21(18)27(19(17)16(28)12-22)10-3-8-24-9-11-29-2;2*1-6-2-4-7(5-3-6)11(8,9)10/h4-7,13,24H,3,8-12H2,1-2H3,(H2,23,25,26);2*2-5H,1H3,(H
,8,9,10)

> <inchi_key>

> <chebi_id>

> <lincs_id>

> <pubchem_cid>
n/a

> <chembl_id>
n/a

> <molecular_mass>
743.9

> <molecular_formula>
35H42FN5O8S2

$$$$

  SciTegic08031211342D

 30 34  0  0  1  0            999 V2000
    0.0000    0.0000    0.0000 N   0  0
    0.0000    0.0000    0.0000 C   0  0  2  0  0  0
    0.0000    0.0000    0.0000 C   0  0
    0.0000    0.0000    0.0000 O   0  0
    0.0000    0.0000    0.0000 C   0  0
    0.0000    0.0000    0.0000 C   0  0
    0.0000    0.0000    0.0000 N   0  0
    0.0000    0.0000    0.0000 C   0  0
    0.0000    0.0000    0.0000 C   0  0
    0.0000    0.0000    0.0000 C   0  0
    0.0000    0.0000    0.0000 C   0  0
    0.0000    0.0000    0.0000 C   0  0
    0.0000    0.0000    0.0000 C   0  0
    0.0000    0.0000    0.0000 C   0  0
    0.0000    0.0000    0.0000 N   0  0
    0.0000    0.0000    0.0000 N   0  0
    0.0000    0.0000    0.0000 C   0  0
    0.0000    0.0000    0.0000 C   0  0
    0.0000    0.0000    0.0000 C   0  0
    0.0000    0.0000    0.0000 C   0  0
    0.0000    0.0000    0.0000 C   0  0
    0.0000    0.0000    0.0000 C   0  0
    0.0000    0.0000    0.0000 C   0  0
    0.0000    0.0000    0.0000 N   0  0
    0.0000    0.0000    0.0000 C   0  0
    0.0000    0.0000    0.0000 C   0  0
    0.0000    0.0000    0.0000 C   0  0
    0.0000    0.0000    0.0000 C   0  0
    0.0000    0.0000    0.0000 C   0  0
    0.0000    0.0000    0.0000 C   0  0
  2  1  1  1
  2  3  1  0
  3  4  1  0
  4  5  1  0
  5  6  2  3
  6  7  1  0
  7  8  2  3
  8  9  1  0
  9 10  1  0
 10 11  2  3
 11 12  1  0
 12 13  1  0
 13 14  1  0
 13 15  2  3
 15 16  1  0
 12 17  2  3
 17 16  1  0
 17 18  1  0
 18 19  2  3
 19 10  1  0
  9 20  2  3
 20  5  1  0
  2 21  1  0
 21 22  1  0
 22 23  2  3
 23 24  1  0
 24 25  1  0
 25 26  2  3
 26 27  1  0
 27 28  2  3
 28 29  1  0
 29 30  2  3
 30 25  1  0
 30 22  1  0
M  END
> <smiles>
N[C@H](COC1=CN=CC(C2=CC(C(C)=NN3)=C3C=C2)=C1)CC4=CNC5=CC=CC=C54

> <facility_reagent_id>
HMSL10045

> <salt_id>
101

> <chemical_name>
A443654

> <inchi>
InChI=1S/C24H23N5O/c1-15-22-10-16(6-7-24(22)29-28-15)17-9-20(13-26-11-17)30-14-19(25)8-18-12-27-23-5-3-2-4-21(18)23/h2-7,9-13,19,27H,8,14,25H2,1H3,(H,28,29)/t19-/m0/s1

> <inchi_key>

> <chebi_id>

> <lincs_id>

> <pubchem_cid>
n/a

> <chembl_id>
n/a

> <molecular_mass>
397.2

> <molecular_formula>
C24H23N5O

$$$$

  SciTegic08031211342D

 34 38  0  0  0  0            999 V2000
    0.0000    0.0000    0.0000 O   0  0
    0.0000    0.0000    0.0000 N   0  0
    0.0000    0.0000    0.0000 C   0  0
    0.0000    0.0000    0.0000 C   0  0
    0.0000    0.0000    0.0000 C   0  0
    0.0000    0.0000    0.0000 C   0  0
    0.0000    0.0000    0.0000 C   0  0
    0.0000    0.0000    0.0000 C   0  0
    0.0000    0.0000    0.0000 C   0  0
    0.0000    0.0000    0.0000 C   0  0
    0.0000    0.0000    0.0000 C   0  0
    0.0000    0.0000    0.0000 N   0  0
    0.0000    0.0000    0.0000 C   0  0
    0.0000    0.0000    0.0000 C   0  0
    0.0000    0.0000    0.0000 C   0  0
    0.0000    0.0000    0.0000 C   0  0
    0.0000    0.0000    0.0000 C   0  0
    0.0000    0.0000    0.0000 O   0  0
    0.0000    0.0000    0.0000 C   0  0
    0.0000    0.0000    0.0000 C   0  0
    0.0000    0.0000    0.0000 N   0  0
    0.0000    0.0000    0.0000 C   0  0
    0.0000    0.0000    0.0000 C   0  0
    0.0000    0.0000    0.0000 C   0  0
    0.0000    0.0000    0.0000 C   0  0
    0.0000    0.0000    0.0000 N   0  0
    0.0000    0.0000    0.0000 C   0  0
    0.0000    0.0000    0.0000 C   0  0
    0.0000    0.0000    0.0000 C   0  0
    0.0000    0.0000    0.0000 C   0  0
    0.0000    0.0000    0.0000 N   0  0
    0.0000    0.0000    0.0000 C   0  0
    0.0000    0.0000    0.0000 C   0  0
    0.0000    0.0000    0.0000 C   0  0
  1  2  1  0
  2  3  2  3
  3  4  1  0
  4  5  1  0
  5  6  1  0
  6  7  2  3
  7  3  1  0
  7  8  1  0
  8  9  2  3
  9 10  1  0
 10 11  1  0
 11 12  1  0
 12 13  1  0
 13 14  1  0
 14 15  2  3
 15 16  1  0
 16 17  2  3
 17 18  1  0
 18 19  1  0
 19 20  1  0
 20 21  1  0
 21 22  1  0
 21 23  1  0
 17 24  1  0
 24 25  2  3
 25 14  1  0
 13 26  2  3
 11 27  2  3
 27 26  1  0
 27 28  1  0
 28 29  2  3
 29 30  1  0
 30 31  2  3
 31 32  1  0
 32 33  2  3
 33 28  1  0
 10 34  2  3
 34  6  1  0
M  END
> <smiles>
O/N=C1CCC2=C/1C=CC(C(NC(C3=CC=C(OCCN(C)C)C=C3)=N4)=C4C5=CC=NC=C5)=C2

> <facility_reagent_id>
HMSL10046

> <salt_id>
101

> <chemical_name>
SB590885; GSK2118436

> <inchi>
InChI=1S/C27H27N5O2/c1-32(2)15-16-34-22-7-3-19(4-8-22)27-29-25(18-11-13-28-14-12-18)26(30-27)21-5-9-23-20(17-21)6-10-24(23)31-33/h3-5,7-9,11-14,17,33H,6,10,15-16H2,1-2H3,(H,29,30)/b31-24-

> <inchi_key>

> <chebi_id>

> <lincs_id>

> <pubchem_cid>
n/a

> <chembl_id>
n/a

> <molecular_mass>
468.2

> <molecular_formula>
C28H30N5O2

$$$$

  SciTegic08031211342D

 35 40  0  0  0  0            999 V2000
    0.0000    0.0000    0.0000 O   0  0
    0.0000    0.0000    0.0000 S   0  0
    0.0000    0.0000    0.0000 N   0  0
    0.0000    0.0000    0.0000 C   0  0
    0.0000    0.0000    0.0000 C   0  0
    0.0000    0.0000    0.0000 N   0  0
    0.0000    0.0000    0.0000 C   0  0
    0.0000    0.0000    0.0000 C   0  0
    0.0000    0.0000    0.0000 C   0  0
    0.0000    0.0000    0.0000 C   0  0
    0.0000    0.0000    0.0000 N   0  0
    0.0000    0.0000    0.0000 C   0  0
    0.0000    0.0000    0.0000 C   0  0
    0.0000    0.0000    0.0000 C   0  0
    0.0000    0.0000    0.0000 C   0  0
    0.0000    0.0000    0.0000 C   0  0
    0.0000    0.0000    0.0000 C   0  0
    0.0000    0.0000    0.0000 C   0  0
    0.0000    0.0000    0.0000 C   0  0
    0.0000    0.0000    0.0000 N   0  0
    0.0000    0.0000    0.0000 N   0  0
    0.0000    0.0000    0.0000 N   0  0
    0.0000    0.0000    0.0000 C   0  0
    0.0000    0.0000    0.0000 N   0  0
    0.0000    0.0000    0.0000 C   0  0
    0.0000    0.0000    0.0000 C   0  0
    0.0000    0.0000    0.0000 O   0  0
    0.0000    0.0000    0.0000 C   0  0
    0.0000    0.0000    0.0000 C   0  0
    0.0000    0.0000    0.0000 C   0  0
    0.0000    0.0000    0.0000 S   0  0
    0.0000    0.0000    0.0000 C   0  0
    0.0000    0.0000    0.0000 C   0  0
    0.0000    0.0000    0.0000 C   0  0
    0.0000    0.0000    0.0000 O   0  0
  1  2  2  0
  2  3  1  0
  3  4  1  0
  4  5  1  0
  5  6  1  0
  6  7  1  0
  7  8  1  0
  8  9  2  3
  9 10  1  0
 10 11  2  3
 11 12  1  0
 12 13  1  0
 13 14  2  3
 14 15  1  0
 15 16  2  3
 16 17  1  0
 17 18  2  3
 18 13  1  0
 18 19  1  0
 19 20  2  3
 20 21  1  0
 21 17  1  0
 12 22  2  3
 22 23  1  0
 23 24  1  0
 24 25  1  0
 25 26  1  0
 26 27  1  0
 27 28  1  0
 28 29  1  0
 29 24  1  0
 23 30  2  3
 30 10  1  0
 30 31  1  0
 31  8  1  0
  6 32  1  0
 32 33  1  0
 33  3  1  0
  2 34  1  0
  2 35  2  0
M  END
> <smiles>
O=S(N1CCN(CC2=CC3=NC(C4=CC=CC5=C4C=NN5)=NC(N6CCOCC6)=C3S2)CC1)(C)=O

> <facility_reagent_id>
HMSL10047

> <salt_id>
101

> <chemical_name>
GDC-0941

> <inchi>
InChI=1S/C23H27N7O3S2/c1-35(31,32)30-7-5-28(6-8-30)15-16-13-20-21(34-16)23(29-9-11-33-12-10-29)26-22(25-20)17-3-2-4-19-18(17)14-24-27-19/h2-4,13-14H,5-12,15H2,1H3,(H,24,27)

> <inchi_key>

> <chebi_id>

> <lincs_id>

> <pubchem_cid>
n/a

> <chembl_id>
n/a

> <molecular_mass>
513.6

> <molecular_formula>
C23H27N7O3S2

$$$$

  SciTegic08031211342D

 25 27  0  0  0  0            999 V2000
    0.0000    0.0000    0.0000 O   0  0
    0.0000    0.0000    0.0000 C   0  0
    0.0000    0.0000    0.0000 N   0  0
    0.0000    0.0000    0.0000 O   0  0
    0.0000    0.0000    0.0000 C   0  0
    0.0000    0.0000    0.0000 C   0  0
    0.0000    0.0000    0.0000 C   0  0
    0.0000    0.0000    0.0000 C   0  0
    0.0000    0.0000    0.0000 C   0  0
    0.0000    0.0000    0.0000 C   0  0
    0.0000    0.0000    0.0000 C   0  0
    0.0000    0.0000    0.0000 C   0  0
    0.0000    0.0000    0.0000 F   0  0
    0.0000    0.0000    0.0000 C   0  0
    0.0000    0.0000    0.0000 F   0  0
    0.0000    0.0000    0.0000 C   0  0
    0.0000    0.0000    0.0000 N   0  0
    0.0000    0.0000    0.0000 C   0  0
    0.0000    0.0000    0.0000 C   0  0
    0.0000    0.0000    0.0000 C   0  0
    0.0000    0.0000    0.0000 C   0  0
    0.0000    0.0000    0.0000 I   0  0
    0.0000    0.0000    0.0000 C   0  0
    0.0000    0.0000    0.0000 C   0  0
    0.0000    0.0000    0.0000 Cl  0  0
  1  2  2  0
  2  3  1  0
  3  4  1  0
  4  5  1  0
  5  6  1  0
  6  7  1  0
  7  8  1  0
  8  6  1  0
  2  9  1  0
  9 10  2  3
 10 11  1  0
 11 12  2  3
 12 13  1  0
 12 14  1  0
 14 15  1  0
 14 16  2  3
 16  9  1  0
 16 17  1  0
 17 18  1  0
 18 19  2  3
 19 20  1  0
 20 21  2  3
 21 22  1  0
 21 23  1  0
 23 24  2  3
 24 18  1  0
 24 25  1  0
M  END
> <smiles>
O=C(NOCC1CC1)C2=CC=C(F)C(F)=C2NC3=CC=C(I)C=C3Cl

> <facility_reagent_id>
HMSL10048

> <salt_id>
101

> <chemical_name>
PD184352; CI-1040

> <inchi>
InChI=1S/C17H14ClF2IN2O2/c18-12-7-10(21)3-6-14(12)22-16-11(4-5-13(19)15(16)20)17(24)23-25-8-9-1-2-9/h3-7,9,22H,1-2,8H2,(H,23,24)

> <inchi_key>

> <chebi_id>

> <lincs_id>

> <pubchem_cid>
n/a

> <chembl_id>
n/a

> <molecular_mass>
478.7

> <molecular_formula>
C17H14ClF2IN2O2

$$$$

  SciTegic08031211342D

 27 29  0  0  0  0            999 V2000
    0.0000    0.0000    0.0000 Cl  0  0
    0.0000    0.0000    0.0000 C   0  0
    0.0000    0.0000    0.0000 C   0  0
    0.0000    0.0000    0.0000 N   0  0
    0.0000    0.0000    0.0000 C   0  0
    0.0000    0.0000    0.0000 N   0  0
    0.0000    0.0000    0.0000 C   0  0
    0.0000    0.0000    0.0000 C   0  0
    0.0000    0.0000    0.0000 C   0  0
    0.0000    0.0000    0.0000 C   0  0
    0.0000    0.0000    0.0000 C   0  0
    0.0000    0.0000    0.0000 F   0  0
    0.0000    0.0000    0.0000 C   0  0
    0.0000    0.0000    0.0000 N   0  0
    0.0000    0.0000    0.0000 S   0  0
    0.0000    0.0000    0.0000 C   0  0
    0.0000    0.0000    0.0000 C   0  0
    0.0000    0.0000    0.0000 C   0  0
    0.0000    0.0000    0.0000 O   0  0
    0.0000    0.0000    0.0000 O   0  0
    0.0000    0.0000    0.0000 C   0  0
    0.0000    0.0000    0.0000 C   0  0
    0.0000    0.0000    0.0000 C   0  0
    0.0000    0.0000    0.0000 F   0  0
    0.0000    0.0000    0.0000 O   0  0
    0.0000    0.0000    0.0000 C   0  0
    0.0000    0.0000    0.0000 C   0  0
  1  2  1  0
  2  3  2  3
  3  4  1  0
  4  5  2  3
  5  6  1  0
  6  7  1  0
  7  8  2  3
  8  9  1  0
  9 10  1  0
 10 11  2  3
 11 12  1  0
 11 13  1  0
 13 14  1  0
 14 15  1  0
 15 16  1  0
 16 17  1  0
 17 18  1  0
 15 19  2  0
 15 20  2  0
 13 21  2  3
 21 22  1  0
 22 23  2  3
 23 10  1  0
 23 24  1  0
  9 25  2  0
  5 26  1  0
 26  8  1  0
 26 27  2  3
 27  2  1  0
M  END
> <smiles>
ClC1=CN=C(NC=C2C(C3=C(F)C(NS(CCC)(=O)=O)=CC=C3F)=O)C2=C1

> <facility_reagent_id>
HMSL10049

> <salt_id>
101

> <chemical_name>
PLX-4720

> <inchi>
InChI=1S/C17H14ClF2N3O3S/c1-2-5-27(25,26)23-13-4-3-12(19)14(15(13)20)16(24)11-8-22-17-10(11)6-9(18)7-21-17/h3-4,6-8,23H,2,5H2,1H3,(H,21,22)

> <inchi_key>

> <chebi_id>

> <lincs_id>

> <pubchem_cid>
24180719

> <chembl_id>
n/a

> <molecular_mass>
413.83

> <molecular_formula>
C17H14ClF2N3O3S

$$$$

  SciTegic08031211342D

 34 37  0  0  0  0            999 V2000
    0.0000    0.0000    0.0000 O   0  0
    0.0000    0.0000    0.0000 C   0  0
    0.0000    0.0000    0.0000 N   0  0
    0.0000    0.0000    0.0000 C   0  0
    0.0000    0.0000    0.0000 C   0  0
    0.0000    0.0000    0.0000 N   0  0
    0.0000    0.0000    0.0000 C   0  0
    0.0000    0.0000    0.0000 C   0  0
    0.0000    0.0000    0.0000 C   0  0
    0.0000    0.0000    0.0000 C   0  0
    0.0000    0.0000    0.0000 C   0  0
    0.0000    0.0000    0.0000 N   0  0
    0.0000    0.0000    0.0000 C   0  0
    0.0000    0.0000    0.0000 C   0  0
    0.0000    0.0000    0.0000 C   0  0
    0.0000    0.0000    0.0000 C   0  0
    0.0000    0.0000    0.0000 C   0  0
    0.0000    0.0000    0.0000 C   0  0
    0.0000    0.0000    0.0000 N   0  0
    0.0000    0.0000    0.0000 C   0  0
    0.0000    0.0000    0.0000 C   0  0
    0.0000    0.0000    0.0000 C   0  0
    0.0000    0.0000    0.0000 C   0  0
    0.0000    0.0000    0.0000 C   0  0
    0.0000    0.0000    0.0000 C   0  0
    0.0000    0.0000    0.0000 C   0  0
    0.0000    0.0000    0.0000 C   0  0
    0.0000    0.0000    0.0000 N   0  0
    0.0000    0.0000    0.0000 C   0  0
    0.0000    0.0000    0.0000 C   0  0
    0.0000    0.0000    0.0000 C   0  0
    0.0000    0.0000    0.0000 O   0  0
    0.0000    0.0000    0.0000 C   0  0
    0.0000    0.0000    0.0000 C   0  0
  1  2  2  0
  2  3  1  0
  3  4  1  0
  3  5  1  0
  5  6  2  3
  2  7  1  0
  7  8  2  3
  8  6  1  0
  8  9  1  0
  9 10  2  3
 10 11  1  0
 11 12  1  0
 12 13  1  0
 13 14  2  3
 14 15  1  0
 14 16  1  0
 16 17  2  3
 17 18  1  0
 18 19  1  0
 19 20  1  0
 20 21  1  0
 21 22  2  3
 22 23  1  0
 23 24  1  0
 24 25  1  0
 24 26  1  0
 24 27  1  0
 27 28  3  0
 23 29  2  3
 29 30  1  0
 30 31  2  3
 31 21  1  0
 20 32  2  0
 18 33  2  3
 33 13  1  0
 11 34  2  3
 34  7  1  0
M  END
> <smiles>
O=C(N(C)C=N1)C2=C1C=CC(NC3=C(C)C=CC(NC(C4=CC(C(C)(C)C#N)=CC=C4)=O)=C3)=C2

> <facility_reagent_id>
HMSL10050

> <salt_id>
101

> <chemical_name>
AZ-628

> <inchi>
InChI=1S/C27H25N5O2/c1-17-8-9-21(31-25(33)18-6-5-7-19(12-18)27(2,3)15-28)14-24(17)30-20-10-11-23-22(13-20)26(34)32(4)16-29-23/h5-14,16,30H,1-4H3,(H,31,33)

> <inchi_key>

> <chebi_id>

> <lincs_id>

> <pubchem_cid>
n/a

> <chembl_id>
n/a

> <molecular_mass>
451.2

> <molecular_formula>
C27H25N5O2

$$$$

  SciTegic08031211342D

 62 66  0  0  0  0            999 V2000
    0.0000    0.0000    0.0000 C   0  0
    0.0000    0.0000    0.0000 S   0  0
    0.0000    0.0000    0.0000 O   0  0
    0.0000    0.0000    0.0000 C   0  0
    0.0000    0.0000    0.0000 C   0  0
    0.0000    0.0000    0.0000 N   0  0
    0.0000    0.0000    0.0000 C   0  0
    0.0000    0.0000    0.0000 C   0  0
    0.0000    0.0000    0.0000 C   0  0
    0.0000    0.0000    0.0000 C   0  0
    0.0000    0.0000    0.0000 C   0  0
    0.0000    0.0000    0.0000 O   0  0
    0.0000    0.0000    0.0000 C   0  0
    0.0000    0.0000    0.0000 C   0  0
    0.0000    0.0000    0.0000 C   0  0
    0.0000    0.0000    0.0000 C   0  0
    0.0000    0.0000    0.0000 C   0  0
    0.0000    0.0000    0.0000 C   0  0
    0.0000    0.0000    0.0000 N   0  0
    0.0000    0.0000    0.0000 C   0  0
    0.0000    0.0000    0.0000 N   0  0
    0.0000    0.0000    0.0000 C   0  0
    0.0000    0.0000    0.0000 N   0  0
    0.0000    0.0000    0.0000 C   0  0
    0.0000    0.0000    0.0000 C   0  0
    0.0000    0.0000    0.0000 C   0  0
    0.0000    0.0000    0.0000 Cl  0  0
    0.0000    0.0000    0.0000 C   0  0
    0.0000    0.0000    0.0000 C   0  0
    0.0000    0.0000    0.0000 C   0  0
    0.0000    0.0000    0.0000 O   0  0
    0.0000    0.0000    0.0000 C   0  0
    0.0000    0.0000    0.0000 C   0  0
    0.0000    0.0000    0.0000 C   0  0
    0.0000    0.0000    0.0000 C   0  0
    0.0000    0.0000    0.0000 F   0  0
    0.0000    0.0000    0.0000 C   0  0
    0.0000    0.0000    0.0000 C   0  0
    0.0000    0.0000    0.0000 C   0  0
    0.0000    0.0000    0.0000 O   0  0
    0.0000    0.0000    0.0000 C   0  0
    0.0000    0.0000    0.0000 C   0  0
    0.0000    0.0000    0.0000 C   0  0
    0.0000    0.0000    0.0000 C   0  0
    0.0000    0.0000    0.0000 C   0  0
    0.0000    0.0000    0.0000 S   0  0
    0.0000    0.0000    0.0000 O   0  0
    0.0000    0.0000    0.0000 O   0  0
    0.0000    0.0000    0.0000 O   0  0
    0.0000    0.0000    0.0000 C   0  0
    0.0000    0.0000    0.0000 C   0  0
    0.0000    0.0000    0.0000 C   0  0
    0.0000    0.0000    0.0000 C   0  0
    0.0000    0.0000    0.0000 C   0  0
    0.0000    0.0000    0.0000 C   0  0
    0.0000    0.0000    0.0000 C   0  0
    0.0000    0.0000    0.0000 S   0  0
    0.0000    0.0000    0.0000 O   0  0
    0.0000    0.0000    0.0000 O   0  0
    0.0000    0.0000    0.0000 O   0  0
    0.0000    0.0000    0.0000 C   0  0
    0.0000    0.0000    0.0000 C   0  0
  1  2  1  0
  2  3  2  0
  2  4  1  0
  4  5  1  0
  5  6  1  0
  6  7  1  0
  7  8  1  0
  8  9  2  3
  9 10  1  0
 10 11  2  3
 11 12  1  0
 12  8  1  0
 11 13  1  0
 13 14  2  3
 14 15  1  0
 15 16  2  3
 16 17  1  0
 17 18  2  3
 18 13  1  0
 16 19  1  0
 19 20  2  3
 20 21  1  0
 21 22  2  3
 22 15  1  0
 22 23  1  0
 23 24  1  0
 24 25  2  3
 25 26  1  0
 26 27  1  0
 26 28  2  3
 28 29  1  0
 29 30  2  3
 30 24  1  0
 28 31  1  0
 31 32  1  0
 32 33  1  0
 33 34  2  3
 34 35  1  0
 35 36  1  0
 35 37  2  3
 37 38  1  0
 38 39  2  3
 39 33  1  0
  2 40  2  0
 41 42  1  0
 42 43  2  3
 43 44  1  0
 44 45  2  3
 45 46  1  0
 46 47  2  0
 46 48  1  0
 46 49  2  0
 45 50  1  0
 50 51  2  3
 51 42  1  0
 52 53  1  0
 53 54  2  3
 54 55  1  0
 55 56  2  3
 56 57  1  0
 57 58  2  0
 57 59  1  0
 57 60  2  0
 56 61  1  0
 61 62  2  3
 62 53  1  0
M  END
> <smiles>
CS(=O)(CCNCC1=CC=C(O1)C2=CC3=C(C=C2)N=CN=C3NC4=CC(Cl)=C(C=C4)OCC5=CC(F)=CC=C5)=O.CC6=CC=C(S(=O)(O)=O)C=C6.CC7=CC=C(S(=O)(O)=O)C=C7

> <facility_reagent_id>
HMSL10051

> <salt_id>
101

> <chemical_name>
GW-572016; Lapatinib; Tykerb

> <inchi>
InChI=1S/C29H26ClFN4O4S.2C7H8O3S/c1-40(36,37)12-11-32-16-23-7-10-27(39-23)20-5-8-26-24(14-20)29(34-18-33-26)35-22-6-9-28(25(30)15-22)38-17-19-3-2-4-21(31)13-19;2*1-6-2-4-7(5-3-6)11(8,9)10/h2-10,13-15,
18,32H,11-12,16-17H2,1H3,(H,33,34,35);2*2-5H,1H3,(H,8,9,10)

> <inchi_key>

> <chebi_id>

> <lincs_id>

> <pubchem_cid>
n/a

> <chembl_id>
n/a

> <molecular_mass>
925.46

> <molecular_formula>
C43H42ClFN4O10S3

$$$$

  SciTegic08031211342D

 65 68  0  0  0  0            999 V2000
    0.0000    0.0000    0.0000 C   0  0
    0.0000    0.0000    0.0000 C   0  0
    0.0000    0.0000    0.0000 C   0  0
    0.0000    0.0000    0.0000 C   0  0
    0.0000    0.0000    0.0000 C   0  0
    0.0000    0.0000    0.0000 C   0  0
    0.0000    0.0000    0.0000 C   0  0
    0.0000    0.0000    0.0000 C   0  0
    0.0000    0.0000    0.0000 C   0  0
    0.0000    0.0000    0.0000 C   0  0
    0.0000    0.0000    0.0000 C   0  0
    0.0000    0.0000    0.0000 C   0  0
    0.0000    0.0000    0.0000 C   0  0
    0.0000    0.0000    0.0000 C   0  0
    0.0000    0.0000    0.0000 C   0  0
    0.0000    0.0000    0.0000 C   0  0
    0.0000    0.0000    0.0000 C   0  0
    0.0000    0.0000    0.0000 O   0  0
    0.0000    0.0000    0.0000 C   0  0
    0.0000    0.0000    0.0000 C   0  0
    0.0000    0.0000    0.0000 C   0  0
    0.0000    0.0000    0.0000 C   0  0
    0.0000    0.0000    0.0000 C   0  0
    0.0000    0.0000    0.0000 C   0  0
    0.0000    0.0000    0.0000 O   0  0
    0.0000    0.0000    0.0000 C   0  0
    0.0000    0.0000    0.0000 C   0  0
    0.0000    0.0000    0.0000 O   0  0
    0.0000    0.0000    0.0000 C   0  0
    0.0000    0.0000    0.0000 O   0  0
    0.0000    0.0000    0.0000 C   0  0
    0.0000    0.0000    0.0000 C   0  0
    0.0000    0.0000    0.0000 C   0  0
    0.0000    0.0000    0.0000 C   0  0
    0.0000    0.0000    0.0000 C   0  0
    0.0000    0.0000    0.0000 N   0  0
    0.0000    0.0000    0.0000 C   0  0
    0.0000    0.0000    0.0000 O   0  0
    0.0000    0.0000    0.0000 C   0  0
    0.0000    0.0000    0.0000 O   0  0
    0.0000    0.0000    0.0000 C   0  0
    0.0000    0.0000    0.0000 O   0  0
    0.0000    0.0000    0.0000 O   0  0
    0.0000    0.0000    0.0000 C   0  0
    0.0000    0.0000    0.0000 C   0  0
    0.0000    0.0000    0.0000 C   0  0
    0.0000    0.0000    0.0000 C   0  0
    0.0000    0.0000    0.0000 C   0  0
    0.0000    0.0000    0.0000 C   0  0
    0.0000    0.0000    0.0000 C   0  0
    0.0000    0.0000    0.0000 C   0  0
    0.0000    0.0000    0.0000 C   0  0
    0.0000    0.0000    0.0000 O   0  0
    0.0000    0.0000    0.0000 C   0  0
    0.0000    0.0000    0.0000 O   0  0
    0.0000    0.0000    0.0000 C   0  0
    0.0000    0.0000    0.0000 C   0  0
    0.0000    0.0000    0.0000 O   0  0
    0.0000    0.0000    0.0000 O   0  0
    0.0000    0.0000    0.0000 C   0  0
    0.0000    0.0000    0.0000 C   0  0
    0.0000    0.0000    0.0000 C   0  0
    0.0000    0.0000    0.0000 C   0  0
    0.0000    0.0000    0.0000 O   0  0
    0.0000    0.0000    0.0000 C   0  0
  1  2  1  0
  2  3  1  0
  3  4  1  0
  4  5  1  0
  5  6  1  0
  6  7  1  0
  7  8  1  0
  8  9  2  3
  9 10  1  0
 10 11  2  3
 11 12  1  0
 12 13  2  3
 13 14  1  0
 14 15  1  0
 15 16  1  0
 16 17  1  0
 17 18  2  0
 17 19  1  0
 19 20  1  0
 20 21  1  0
 21 22  2  3
 22 23  1  0
 23 24  1  0
 24 25  2  0
 24 26  1  0
 26 27  1  0
 27 28  1  0
 28 29  1  0
 29 30  2  0
 29 31  1  0
 31 32  1  0
 32 33  1  0
 33 34  1  0
 34 35  1  0
 35 36  1  0
 36 31  1  0
 36 37  1  0
 37 38  2  0
 37 39  1  0
 39 40  2  0
 39 41  1  0
 41  2  1  0
 41 42  1  0
 42  5  1  0
 41 43  1  0
 27 44  1  0
 44 45  1  0
 44 46  1  0
 46 47  1  0
 47 48  1  0
 48 49  1  0
 49 50  1  0
 50 51  1  0
 51 52  1  0
 52 47  1  0
 51 53  1  0
 53 54  1  0
 50 55  1  0
 23 56  1  0
 21 57  1  0
 20 58  1  0
 19 59  1  0
 59 60  1  0
 16 61  1  0
 14 62  1  0
  8 63  1  0
  7 64  1  0
 64 65  1  0
M  END
> <smiles>
CC1CCC2CC(C(=CC=CC=CC(CC(C(=O)C(C(C(=CC(C(=O)CC(OC(=O)C3CCCCN3C(=O)C(=O)C1(O2)O)C(C)CC4CCC(C(C4)OC)O)C)C)O)OC)C)C)C)OC

> <facility_reagent_id>
HMSL10052

> <salt_id>
101

> <chemical_name>
Rapamycin; Sirolimus

> <inchi>
InChI=1S/C51H79NO13/c1-30-16-12-11-13-17-31(2)42(61-8)28-38-21-19-36(7)51(60,65-38)48(57)49(58)52-23-15-14-18-39(52)50(59)64-43(33(4)26-37-20-22-40(53)44(27-37)62-9)29-41(54)32(3)25-35(6)46(56)47(63-1
0)45(55)34(5)24-30/h11-13,16-17,25,30,32-34,36-40,42-44,46-47,53,56,60H,14-15,18-24,26-29H2,1-10H3

> <inchi_key>

> <chebi_id>

> <lincs_id>

> <pubchem_cid>
n/a

> <chembl_id>
n/a

> <molecular_mass>
914.2

> <molecular_formula>
C51H79NO13

$$$$

  SciTegic08031211342D

 30 34  0  0  0  0            999 V2000
    0.0000    0.0000    0.0000 F   0  0
    0.0000    0.0000    0.0000 C   0  0
    0.0000    0.0000    0.0000 F   0  0
    0.0000    0.0000    0.0000 C   0  0
    0.0000    0.0000    0.0000 N   0  0
    0.0000    0.0000    0.0000 C   0  0
    0.0000    0.0000    0.0000 C   0  0
    0.0000    0.0000    0.0000 C   0  0
    0.0000    0.0000    0.0000 C   0  0
    0.0000    0.0000    0.0000 C   0  0
    0.0000    0.0000    0.0000 C   0  0
    0.0000    0.0000    0.0000 N   0  0
    0.0000    0.0000    0.0000 C   0  0
    0.0000    0.0000    0.0000 N   0  0
    0.0000    0.0000    0.0000 C   0  0
    0.0000    0.0000    0.0000 N   0  0
    0.0000    0.0000    0.0000 C   0  0
    0.0000    0.0000    0.0000 C   0  0
    0.0000    0.0000    0.0000 O   0  0
    0.0000    0.0000    0.0000 C   0  0
    0.0000    0.0000    0.0000 C   0  0
    0.0000    0.0000    0.0000 N   0  0
    0.0000    0.0000    0.0000 C   0  0
    0.0000    0.0000    0.0000 N   0  0
    0.0000    0.0000    0.0000 C   0  0
    0.0000    0.0000    0.0000 C   0  0
    0.0000    0.0000    0.0000 O   0  0
    0.0000    0.0000    0.0000 C   0  0
    0.0000    0.0000    0.0000 C   0  0
    0.0000    0.0000    0.0000 N   0  0
  1  2  1  0
  2  3  1  0
  2  4  1  0
  4  5  2  3
  5  6  1  0
  6  7  2  3
  7  8  1  0
  8  9  2  3
  9 10  1  0
 10 11  2  3
 11  6  1  0
  7 12  1  0
 12  4  1  0
 12 13  1  0
 13 14  2  3
 14 15  1  0
 15 16  1  0
 16 17  1  0
 17 18  1  0
 18 19  1  0
 19 20  1  0
 20 21  1  0
 21 16  1  0
 15 22  2  3
 22 23  1  0
 23 24  1  0
 24 25  1  0
 25 26  1  0
 26 27  1  0
 27 28  1  0
 28 29  1  0
 29 24  1  0
 23 30  2  3
 30 13  1  0
M  END
> <smiles>
FC(F)C1=NC2=C(C=CC=C2)N1C3=NC(N4CCOCC4)=NC(N5CCOCC5)=N3

> <facility_reagent_id>
HMSL10053

> <salt_id>
101

> <chemical_name>
ZSTK474

> <inchi>
InChI=1S/C19H21F2N7O2/c20-15(21)16-22-13-3-1-2-4-14(13)28(16)19-24-17(26-5-9-29-10-6-26)23-18(25-19)27-7-11-30-12-8-27/h1-4,15H,5-12H2

> <inchi_key>

> <chebi_id>

> <lincs_id>

> <pubchem_cid>
n/a

> <chembl_id>
n/a

> <molecular_mass>
417.4

> <molecular_formula>
C19H21F2N7O2

$$$$

  SciTegic08031211342D

 19 21  0  0  0  0            999 V2000
    0.0000    0.0000    0.0000 H   0  0
    0.0000    0.0000    0.0000 C   0  0
    0.0000    0.0000    0.0000 C   0  0
    0.0000    0.0000    0.0000 C   0  0
    0.0000    0.0000    0.0000 C   0  0
    0.0000    0.0000    0.0000 N   0  0
    0.0000    0.0000    0.0000 C   0  0
    0.0000    0.0000    0.0000 C   0  0
    0.0000    0.0000    0.0000 N   0  0
    0.0000    0.0000    0.0000 C   0  0
    0.0000    0.0000    0.0000 C   0  0
    0.0000    0.0000    0.0000 C   0  0
    0.0000    0.0000    0.0000 C   0  0
    0.0000    0.0000    0.0000 C   0  0
    0.0000    0.0000    0.0000 N   0  0
    0.0000    0.0000    0.0000 C   0  0
    0.0000    0.0000    0.0000 S   0  0
    0.0000    0.0000    0.0000 O   0  0
    0.0000    0.0000    0.0000 O   0  0
  1  2  1  0
  2  3  1  0
  3  4  2  3
  4  5  1  0
  5  6  2  3
  6  7  1  0
  7  8  2  3
  8  9  1  0
  9 10  2  3
 10  5  1  0
 10 11  1  0
 11 12  2  3
 12  3  1  0
  2 13  2  3
 13 14  1  0
 14 15  1  0
 15 16  1  0
 16 17  1  0
 17 13  1  0
 16 18  2  0
 14 19  2  0
M  END
> <smiles>
[H]/C(C1=CC2=NC=CN=C2C=C1)=C3C(NC(S/3)=O)=O

> <facility_reagent_id>
HMSL10054

> <salt_id>
101

> <chemical_name>
AS605240

> <inchi>
InChI=1S/C12H7N3O2S/c16-11-10(18-12(17)15-11)6-7-1-2-8-9(5-7)14-4-3-13-8/h1-6H,(H,15,16,17)/b10-6+

> <inchi_key>

> <chebi_id>

> <lincs_id>

> <pubchem_cid>
n/a

> <chembl_id>
n/a

> <molecular_mass>
257.3

> <molecular_formula>
C12H7N3O2S

$$$$

  SciTegic08031211342D

 30 33  0  0  0  0            999 V2000
    0.0000    0.0000    0.0000 Br  0  0
    0.0000    0.0000    0.0000 C   0  0
    0.0000    0.0000    0.0000 C   0  0
    0.0000    0.0000    0.0000 N   0  0
    0.0000    0.0000    0.0000 C   0  0
    0.0000    0.0000    0.0000 C   0  0
    0.0000    0.0000    0.0000 C   0  0
    0.0000    0.0000    0.0000 C   0  0
    0.0000    0.0000    0.0000 N   0  0
    0.0000    0.0000    0.0000 C   0  0
    0.0000    0.0000    0.0000 N   0  0
    0.0000    0.0000    0.0000 N   0  0
    0.0000    0.0000    0.0000 C   0  0
    0.0000    0.0000    0.0000 N   0  0
    0.0000    0.0000    0.0000 C   0  0
    0.0000    0.0000    0.0000 C   0  0
    0.0000    0.0000    0.0000 C   0  0
    0.0000    0.0000    0.0000 N   0  0
    0.0000    0.0000    0.0000 C   0  0
    0.0000    0.0000    0.0000 N   0  0
    0.0000    0.0000    0.0000 C   0  0
    0.0000    0.0000    0.0000 C   0  0
    0.0000    0.0000    0.0000 C   0  0
    0.0000    0.0000    0.0000 C   0  0
    0.0000    0.0000    0.0000 O   0  0
    0.0000    0.0000    0.0000 C   0  0
    0.0000    0.0000    0.0000 C   0  0
    0.0000    0.0000    0.0000 C   0  0
    0.0000    0.0000    0.0000 N   0  0
    0.0000    0.0000    0.0000 C   0  0
  1  2  1  0
  2  3  2  3
  3  4  1  0
  4  5  1  0
  5  6  1  0
  6  7  1  0
  7  8  2  3
  8  9  1  0
  9 10  1  0
 10 11  2  3
 11  7  1  0
  3 12  1  0
 12 13  2  3
 13 14  1  0
 14 15  1  0
 15 16  2  3
 16 17  1  0
 17 18  1  0
 18 19  1  0
 19 20  1  0
 20 21  1  0
 21 22  1  0
 22 23  1  0
 23 24  1  0
 24 20  1  0
 19 25  2  0
 17 26  2  3
 26 27  1  0
 27 28  2  3
 28 15  1  0
 13 29  1  0
 29 30  2  3
 30  2  1  0
M  END
> <smiles>
BrC1=C(NCCC2=CNC=N2)N=C(NC3=CC(NC(N4CCCC4)=O)=CC=C3)N=C1

> <facility_reagent_id>
HMSL10055

> <salt_id>
101

> <chemical_name>
BX-912

> <inchi>
InChI=1S/C20H23BrN8O/c21-17-12-24-19(28-18(17)23-7-6-16-11-22-13-25-16)26-14-4-3-5-15(10-14)27-20(30)29-8-1-2-9-29/h3-5,10-13H,1-2,6-9H2,(H,22,25)(H,27,30)(H2,23,24,26,28)

> <inchi_key>

> <chebi_id>

> <lincs_id>

> <pubchem_cid>
n/a

> <chembl_id>
n/a

> <molecular_mass>
471.4

> <molecular_formula>
C20H23BrN8O

$$$$

  SciTegic08031211342D

 27 29  0  0  0  0            999 V2000
    0.0000    0.0000    0.0000 O   0  0
    0.0000    0.0000    0.0000 C   0  0
    0.0000    0.0000    0.0000 N   0  0
    0.0000    0.0000    0.0000 O   0  0
    0.0000    0.0000    0.0000 C   0  0
    0.0000    0.0000    0.0000 C   0  0
    0.0000    0.0000    0.0000 O   0  0
    0.0000    0.0000    0.0000 C   0  0
    0.0000    0.0000    0.0000 C   0  0
    0.0000    0.0000    0.0000 N   0  0
    0.0000    0.0000    0.0000 C   0  0
    0.0000    0.0000    0.0000 C   0  0
    0.0000    0.0000    0.0000 C   0  0
    0.0000    0.0000    0.0000 C   0  0
    0.0000    0.0000    0.0000 Br  0  0
    0.0000    0.0000    0.0000 C   0  0
    0.0000    0.0000    0.0000 C   0  0
    0.0000    0.0000    0.0000 Cl  0  0
    0.0000    0.0000    0.0000 C   0  0
    0.0000    0.0000    0.0000 F   0  0
    0.0000    0.0000    0.0000 C   0  0
    0.0000    0.0000    0.0000 C   0  0
    0.0000    0.0000    0.0000 N   0  0
    0.0000    0.0000    0.0000 C   0  0
    0.0000    0.0000    0.0000 C   0  0
    0.0000    0.0000    0.0000 N   0  0
    0.0000    0.0000    0.0000 C   0  0
  1  2  2  0
  2  3  1  0
  3  4  1  0
  4  5  1  0
  5  6  1  0
  6  7  1  0
  2  8  1  0
  8  9  2  3
  9 10  1  0
 10 11  1  0
 11 12  2  3
 12 13  1  0
 13 14  2  3
 14 15  1  0
 14 16  1  0
 16 17  2  3
 17 11  1  0
 17 18  1  0
  9 19  1  0
 19 20  1  0
 19 21  2  3
 21 22  1  0
 22 23  1  0
 23 24  1  0
 23 25  1  0
 25 26  2  3
 26 21  1  0
 22 27  2  3
 27  8  1  0
M  END
> <smiles>
O=C(NOCCO)C1=C(NC2=CC=C(Br)C=C2Cl)C(F)=C3C(N(C)C=N3)=C1

> <facility_reagent_id>
HMSL10056

> <salt_id>
101

> <chemical_name>
AZD6244; Selumetinib; Array142886

> <inchi>
InChI=1S/C17H15BrClFN4O3/c1-24-8-21-16-13(24)7-10(17(26)23-27-5-4-25)15(14(16)20)22-12-3-2-9(18)6-11(12)19/h2-3,6-8,22,25H,4-5H2,1H3,(H,23,26)

> <inchi_key>

> <chebi_id>

> <lincs_id>

> <pubchem_cid>
n/a

> <chembl_id>
n/a

> <molecular_mass>
457.7

> <molecular_formula>
C17H15BrClFN4O3

$$$$

  SciTegic08031211342D

 33 36  0  0  0  0            999 V2000
    0.0000    0.0000    0.0000 O   0  0
    0.0000    0.0000    0.0000 C   0  0
    0.0000    0.0000    0.0000 N   0  0
    0.0000    0.0000    0.0000 C   0  0
    0.0000    0.0000    0.0000 C   0  0
    0.0000    0.0000    0.0000 C   0  0
    0.0000    0.0000    0.0000 C   0  0
    0.0000    0.0000    0.0000 C   0  0
    0.0000    0.0000    0.0000 C   0  0
    0.0000    0.0000    0.0000 C   0  0
    0.0000    0.0000    0.0000 C   0  0
    0.0000    0.0000    0.0000 C   0  0
    0.0000    0.0000    0.0000 C   0  0
    0.0000    0.0000    0.0000 C   0  0
    0.0000    0.0000    0.0000 C   0  0
    0.0000    0.0000    0.0000 C   0  0
    0.0000    0.0000    0.0000 C   0  0
    0.0000    0.0000    0.0000 C   0  0
    0.0000    0.0000    0.0000 C   0  0
    0.0000    0.0000    0.0000 C   0  0
    0.0000    0.0000    0.0000 N   0  0
    0.0000    0.0000    0.0000 N   0  0
    0.0000    0.0000    0.0000 C   0  0
    0.0000    0.0000    0.0000 C   0  0
    0.0000    0.0000    0.0000 C   0  0
    0.0000    0.0000    0.0000 C   0  0
    0.0000    0.0000    0.0000 C   0  0
    0.0000    0.0000    0.0000 C   0  0
    0.0000    0.0000    0.0000 C   0  0
    0.0000    0.0000    0.0000 N   0  0
    0.0000    0.0000    0.0000 N   0  0
    0.0000    0.0000    0.0000 Cl  0  0
    0.0000    0.0000    0.0000 Cl  0  0
  1  2  2  0
  2  3  1  0
  3  4  1  0
  4  5  2  3
  5  6  1  0
  6  7  2  3
  7  8  1  0
  8  9  2  3
  9 10  1  0
 10 11  1  0
 11 12  2  3
 12 13  1  0
 13 14  2  3
 14 15  1  0
 15 16  2  3
 16 11  1  0
 14 17  1  0
 17 18  1  0
 18 19  1  0
 19 20  1  0
 20 17  1  0
 17 21  1  0
 10 22  2  3
 22  6  1  0
  9 23  1  0
 23 24  2  3
 24 25  1  0
 25 26  2  3
 26 27  1  0
 27 28  2  3
 28 23  1  0
  3 29  1  0
 29  7  1  0
 29 30  2  3
 30 31  1  0
 31  2  1  0
M  END
> <smiles>
O=C1N(C=CC2=C3C=C(C(C4=CC=C(C=C4)C5(CCC5)N)=N2)C6=CC=CC=C6)C3=NN1.Cl.Cl

> <facility_reagent_id>
HMSL10057

> <salt_id>
101

> <chemical_name>
MK2206

> <inchi>
InChI=1S/C25H21N5O.2ClH/c26-25(12-4-13-25)18-9-7-17(8-10-18)22-19(16-5-2-1-3-6-16)15-20-21(27-22)11-14-30-23(20)28-29-24(30)31;;/h1-3,5-11,14-15H,4,12-13,26H2,(H,29,31);2*1H

> <inchi_key>

> <chebi_id>

> <lincs_id>

> <pubchem_cid>
n/a

> <chembl_id>
n/a

> <molecular_mass>
480.4

> <molecular_formula>
C25H23Cl2N5O

$$$$

  SciTegic08031211342D

 32 36  0  0  1  0            999 V2000
    0.0000    0.0000    0.0000 F   0  0
    0.0000    0.0000    0.0000 C   0  0
    0.0000    0.0000    0.0000 C   0  0
    0.0000    0.0000    0.0000 C   0  0
    0.0000    0.0000    0.0000 F   0  0
    0.0000    0.0000    0.0000 C   0  0
    0.0000    0.0000    0.0000 C   0  0
    0.0000    0.0000    0.0000 F   0  0
    0.0000    0.0000    0.0000 C   0  0
    0.0000    0.0000    0.0000 N   0  0
    0.0000    0.0000    0.0000 C   0  0
    0.0000    0.0000    0.0000 N   0  0
    0.0000    0.0000    0.0000 C   0  0
    0.0000    0.0000    0.0000 C   0  0
    0.0000    0.0000    0.0000 N   0  0
    0.0000    0.0000    0.0000 C   0  0
    0.0000    0.0000    0.0000 N   0  0
    0.0000    0.0000    0.0000 C   0  0  1  0  0  0
    0.0000    0.0000    0.0000 C   0  0
    0.0000    0.0000    0.0000 C   0  0
    0.0000    0.0000    0.0000 C   0  0  1  0  0  0
    0.0000    0.0000    0.0000 O   0  0
    0.0000    0.0000    0.0000 C   0  0
    0.0000    0.0000    0.0000 C   0  0
    0.0000    0.0000    0.0000 N   0  0
    0.0000    0.0000    0.0000 C   0  0
    0.0000    0.0000    0.0000 N   0  0
    0.0000    0.0000    0.0000 C   0  0  1  0  0  0
    0.0000    0.0000    0.0000 C   0  0
    0.0000    0.0000    0.0000 O   0  0
    0.0000    0.0000    0.0000 C   0  0
    0.0000    0.0000    0.0000 C   0  0
  1  2  1  0
  2  3  2  3
  3  4  1  0
  4  5  1  0
  4  6  2  3
  6  7  1  0
  7  8  1  0
  7  9  2  3
  9  2  1  0
  9 10  1  0
 10 11  1  0
 11 12  2  3
 12 13  1  0
 13 14  2  3
 14 15  1  0
 15 16  2  3
 16 17  1  0
 18 17  1  1
 18 19  1  0
 19 20  1  0
 20 21  1  0
 21 22  1  1
 21 23  1  0
 23 24  1  0
 24 18  1  0
 16 25  1  0
 25 26  2  3
 26 13  1  0
 26 27  1  0
 27 11  1  0
 28 27  1  1
 28 29  1  0
 29 30  1  0
 30 31  1  0
 31 32  1  0
 32 28  1  0
M  END
> <smiles>
FC1=CC(F)=CC(F)=C1NC2=NC3=CN=C(N[C@H]4CC[C@@H](O)CC4)N=C3N2[C@H]5COCC5

> <facility_reagent_id>
HMSL10058

> <salt_id>
101

> <chemical_name>
CG-930; JNK930

> <inchi>
InChI=1S/C21H23F3N6O2/c22-11-7-15(23)18(16(24)8-11)28-21-27-17-9-25-20(26-12-1-3-14(31)4-2-12)29-19(17)30(21)13-5-6-32-10-13/h7-9,12-14,31H,1-6,10H2,(H,27,28)(H,25,26,29)/t12-,13-,14+/m1/s1

> <inchi_key>

> <chebi_id>

> <lincs_id>

> <pubchem_cid>
n/a

> <chembl_id>
n/a

> <molecular_mass>
448.4

> <molecular_formula>
C21H23N6F3O2

$$$$

  SciTegic08031211342D

 30 33  0  0  1  0            999 V2000
    0.0000    0.0000    0.0000 C   0  0
    0.0000    0.0000    0.0000 C   0  0
    0.0000    0.0000    0.0000 C   0  0
    0.0000    0.0000    0.0000 C   0  0
    0.0000    0.0000    0.0000 C   0  0  1  0  0  0
    0.0000    0.0000    0.0000 C   0  0
    0.0000    0.0000    0.0000 N   0  0
    0.0000    0.0000    0.0000 C   0  0
    0.0000    0.0000    0.0000 C   0  0
    0.0000    0.0000    0.0000 C   0  0
    0.0000    0.0000    0.0000 O   0  0
    0.0000    0.0000    0.0000 O   0  0
    0.0000    0.0000    0.0000 C   0  0
    0.0000    0.0000    0.0000 C   0  0
    0.0000    0.0000    0.0000 C   0  0
    0.0000    0.0000    0.0000 C   0  0
    0.0000    0.0000    0.0000 C   0  0
    0.0000    0.0000    0.0000 N   0  0
    0.0000    0.0000    0.0000 C   0  0
    0.0000    0.0000    0.0000 N   0  0
    0.0000    0.0000    0.0000 C   0  0
    0.0000    0.0000    0.0000 N   0  0
    0.0000    0.0000    0.0000 C   0  0
    0.0000    0.0000    0.0000 C   0  0
    0.0000    0.0000    0.0000 O   0  0
    0.0000    0.0000    0.0000 C   0  0
    0.0000    0.0000    0.0000 C   0  0
    0.0000    0.0000    0.0000 C   0  0
    0.0000    0.0000    0.0000 C   0  0
    0.0000    0.0000    0.0000 O   0  0
  1  2  1  0
  2  3  1  0
  3  4  2  3
  4  5  1  0
  5  6  1  1
  5  7  1  0
  7  8  1  0
  8  9  2  3
  9 10  1  0
 10 11  1  0
 10 12  2  0
  9 13  1  0
 13 14  2  3
 14 15  1  0
 15 16  2  3
 16  8  1  0
  2 17  2  3
 17 18  1  0
 18 19  1  0
 19  4  1  0
 19 20  2  3
 20 21  1  0
 21 22  1  0
 22 23  1  0
 23 24  1  0
 24 25  1  0
 25 26  1  0
 26 27  1  0
 27 22  1  0
 21 28  2  3
 28 29  1  0
 29 18  1  0
 29 30  2  0
M  END
> <smiles>
CC(C=C2[C@@H](C)NC3=C(C(O)=O)C=CC=C3)=CN1C2=NC(N4CCOCC4)=CC1=O

> <facility_reagent_id>
HMSL10059

> <salt_id>
101

> <chemical_name>
AZD-6482; KIN001-193

> <inchi>
InChI=1S/C22H24N4O4/c1-14-11-17(15(2)23-18-6-4-3-5-16(18)22(28)29)21-24-19(12-20(27)26(21)13-14)25-7-9-30-10-8-25/h3-6,11-13,15,23H,7-10H2,1-2H3,(H,28,29)/t15-/m1/s1

> <inchi_key>

> <chebi_id>

> <lincs_id>

> <pubchem_cid>
n/a

> <chembl_id>
n/a

> <molecular_mass>
408.5

> <molecular_formula>
C22H24N4O4

$$$$

  SciTegic08031211342D

 29 32  0  0  0  0            999 V2000
    0.0000    0.0000    0.0000 O   0  0
    0.0000    0.0000    0.0000 C   0  0
    0.0000    0.0000    0.0000 C   0  0
    0.0000    0.0000    0.0000 C   0  0
    0.0000    0.0000    0.0000 C   0  0
    0.0000    0.0000    0.0000 C   0  0
    0.0000    0.0000    0.0000 C   0  0
    0.0000    0.0000    0.0000 C   0  0
    0.0000    0.0000    0.0000 N   0  0
    0.0000    0.0000    0.0000 C   0  0
    0.0000    0.0000    0.0000 C   0  0
    0.0000    0.0000    0.0000 C   0  0
    0.0000    0.0000    0.0000 C   0  0
    0.0000    0.0000    0.0000 C   0  0
    0.0000    0.0000    0.0000 C   0  0
    0.0000    0.0000    0.0000 C   0  0
    0.0000    0.0000    0.0000 C   0  0
    0.0000    0.0000    0.0000 C   0  0
    0.0000    0.0000    0.0000 C   0  0
    0.0000    0.0000    0.0000 C   0  0
    0.0000    0.0000    0.0000 C   0  0
    0.0000    0.0000    0.0000 N   0  0
    0.0000    0.0000    0.0000 C   0  0
    0.0000    0.0000    0.0000 C   0  0
    0.0000    0.0000    0.0000 C   0  0
    0.0000    0.0000    0.0000 S   0  0
    0.0000    0.0000    0.0000 C   0  0
    0.0000    0.0000    0.0000 C   0  0
    0.0000    0.0000    0.0000 N   0  0
  1  2  2  0
  2  3  1  0
  3  4  2  3
  4  5  1  0
  5  6  2  3
  6  7  1  0
  7  8  2  3
  8  3  1  0
  2  9  1  0
  9 10  1  0
 10 11  2  3
 11 12  1  0
 12 13  1  0
 13 14  2  3
 14 15  1  0
 15 16  2  3
 16 17  1  0
 17 18  1  0
 17 19  2  3
 19 20  1  0
 20 21  2  3
 21 15  1  0
 14 22  1  0
 22 23  2  3
 23 24  1  0
 24 25  1  0
 23 26  1  0
 26 13  1  0
 12 27  2  3
 27 28  1  0
 28 29  2  3
 29 10  1  0
M  END
> <smiles>
O=C(C1=CC=CC=C1)NC2=CC(C3=C(C4=CC(C)=CC=C4)N=C(CC)S3)=CC=N2

> <facility_reagent_id>
HMSL10060

> <salt_id>
101

> <chemical_name>
TAK-715

> <inchi>
InChI=1S/C24H21N3OS/c1-3-21-27-22(18-11-7-8-16(2)14-18)23(29-21)19-12-13-25-20(15-19)26-24(28)17-9-5-4-6-10-17/h4-15H,3H2,1-2H3,(H,25,26,28)

> <inchi_key>

> <chebi_id>

> <lincs_id>

> <pubchem_cid>
n/a

> <chembl_id>
n/a

> <molecular_mass>
399.14

> <molecular_formula>
C24H21N3OS

$$$$

  SciTegic08031211342D

 30 35  0  0  0  0            999 V2000
    0.0000    0.0000    0.0000 O   0  0
    0.0000    0.0000    0.0000 C   0  0
    0.0000    0.0000    0.0000 C   0  0
    0.0000    0.0000    0.0000 C   0  0
    0.0000    0.0000    0.0000 N   0  0
    0.0000    0.0000    0.0000 C   0  0
    0.0000    0.0000    0.0000 C   0  0
    0.0000    0.0000    0.0000 O   0  0
    0.0000    0.0000    0.0000 C   0  0
    0.0000    0.0000    0.0000 C   0  0
    0.0000    0.0000    0.0000 O   0  0
    0.0000    0.0000    0.0000 C   0  0
    0.0000    0.0000    0.0000 C   0  0
    0.0000    0.0000    0.0000 C   0  0
    0.0000    0.0000    0.0000 C   0  0
    0.0000    0.0000    0.0000 C   0  0
    0.0000    0.0000    0.0000 C   0  0
    0.0000    0.0000    0.0000 C   0  0
    0.0000    0.0000    0.0000 C   0  0
    0.0000    0.0000    0.0000 C   0  0
    0.0000    0.0000    0.0000 C   0  0
    0.0000    0.0000    0.0000 C   0  0
    0.0000    0.0000    0.0000 C   0  0
    0.0000    0.0000    0.0000 C   0  0
    0.0000    0.0000    0.0000 C   0  0
    0.0000    0.0000    0.0000 C   0  0
    0.0000    0.0000    0.0000 S   0  0
    0.0000    0.0000    0.0000 C   0  0
    0.0000    0.0000    0.0000 C   0  0
    0.0000    0.0000    0.0000 C   0  0
  1  2  2  0
  2  3  1  0
  3  4  2  3
  4  5  1  0
  5  6  1  0
  6  7  1  0
  7  8  1  0
  8  9  1  0
  9 10  1  0
 10  5  1  0
  4 11  1  0
 11 12  1  0
 12 13  2  3
 13  2  1  0
 13 14  1  0
 14 15  2  3
 15 16  1  0
 16 17  2  3
 17 12  1  0
 17 18  1  0
 18 19  2  3
 19 20  1  0
 20 21  1  0
 21 22  2  3
 22 23  1  0
 23 24  2  3
 24 25  1  0
 25 26  2  3
 26 21  1  0
 26 27  1  0
 27 19  1  0
 20 28  2  3
 28 29  1  0
 29 30  2  3
 30 18  1  0
M  END
> <smiles>
O=C1C=C(N2CCOCC2)OC3=C1C=CC=C3C4=C5C(C6=CC=CC=C6S5)=CC=C4

> <facility_reagent_id>
HMSL10061

> <salt_id>
101

> <chemical_name>
NU7441; KU 57788

> <inchi>
InChI=1S/C25H19NO3S/c27-21-15-23(26-11-13-28-14-12-26)29-24-17(6-3-9-20(21)24)19-8-4-7-18-16-5-1-2-10-22(16)30-25(18)19/h1-10,15H,11-14H2

> <inchi_key>

> <chebi_id>

> <lincs_id>

> <pubchem_cid>
11327430

> <chembl_id>
188678

> <molecular_mass>
413.49

> <molecular_formula>
C25H19NO3S

$$$$

  SciTegic08031211342D

 38 42  0  0  0  0            999 V2000
    0.0000    0.0000    0.0000 C   0  0
    0.0000    0.0000    0.0000 N   0  0
    0.0000    0.0000    0.0000 C   0  0
    0.0000    0.0000    0.0000 C   0  0
    0.0000    0.0000    0.0000 C   0  0
    0.0000    0.0000    0.0000 C   0  0
    0.0000    0.0000    0.0000 C   0  0
    0.0000    0.0000    0.0000 C   0  0
    0.0000    0.0000    0.0000 C   0  0
    0.0000    0.0000    0.0000 C   0  0
    0.0000    0.0000    0.0000 C   0  0
    0.0000    0.0000    0.0000 C   0  0
    0.0000    0.0000    0.0000 N   0  0
    0.0000    0.0000    0.0000 C   0  0
    0.0000    0.0000    0.0000 C   0  0
    0.0000    0.0000    0.0000 N   0  0
    0.0000    0.0000    0.0000 C   0  0
    0.0000    0.0000    0.0000 C   0  0
    0.0000    0.0000    0.0000 C   0  0
    0.0000    0.0000    0.0000 C   0  0
    0.0000    0.0000    0.0000 C   0  0
    0.0000    0.0000    0.0000 N   0  0
    0.0000    0.0000    0.0000 C   0  0
    0.0000    0.0000    0.0000 N   0  0
    0.0000    0.0000    0.0000 C   0  0
    0.0000    0.0000    0.0000 C   0  0
    0.0000    0.0000    0.0000 O   0  0
    0.0000    0.0000    0.0000 C   0  0
    0.0000    0.0000    0.0000 C   0  0
    0.0000    0.0000    0.0000 C   0  0
    0.0000    0.0000    0.0000 C   0  0
    0.0000    0.0000    0.0000 N   0  0
    0.0000    0.0000    0.0000 C   0  0
    0.0000    0.0000    0.0000 N   0  0
    0.0000    0.0000    0.0000 C   0  0
    0.0000    0.0000    0.0000 C   0  0
    0.0000    0.0000    0.0000 C   0  0
    0.0000    0.0000    0.0000 C   0  0
  1  2  1  0
  2  3  1  0
  3  4  1  0
  4  5  2  3
  5  6  1  0
  6  7  1  0
  7  8  2  3
  8  9  1  0
  9 10  2  3
 10 11  1  0
 11 12  2  3
 12 13  1  0
 13 14  1  0
 14 15  1  0
 13 16  1  0
 16 17  2  3
 17 11  1  0
 17 18  1  0
 18 19  2  3
 19 20  1  0
 20 21  2  3
 21 22  1  0
 22 23  1  0
 23 24  1  0
 24 25  1  0
 24 26  1  0
 23 27  2  0
 21 28  1  0
 28 29  2  3
 29 18  1  0
 10 30  1  0
 30 31  2  3
 31 32  1  0
 32 33  2  3
 33  9  1  0
 33 34  1  0
 34  7  1  0
  6 35  2  3
 35 36  1  0
 36 37  2  3
 37  4  1  0
  2 38  1  0
M  END
> <smiles>
CN(CC1=CC(C2=CC3=C(C4=CN(CC)N=C4C5=CC=C(NC(N(C)C)=O)C=C5)C=CN=C3N2)=CC=C1)C

> <facility_reagent_id>
HMSL10062

> <salt_id>
101

> <chemical_name>
GSK1070916

> <inchi>
InChI=1S/C30H33N7O/c1-6-37-19-26(28(34-37)21-10-12-23(13-11-21)32-30(38)36(4)5)24-14-15-31-29-25(24)17-27(33-29)22-9-7-8-20(16-22)18-35(2)3/h7-17,19H,6,18H2,1-5H3,(H,31,33)(H,32,38)

> <inchi_key>

> <chebi_id>

> <lincs_id>

> <pubchem_cid>
n/a

> <chembl_id>
1090479

> <molecular_mass>
507.63

> <molecular_formula>
C30H33N7O

$$$$

  SciTegic08031211342D

 31 34  0  0  1  0            999 V2000
    0.0000    0.0000    0.0000 C   0  0
    0.0000    0.0000    0.0000 O   0  0
    0.0000    0.0000    0.0000 C   0  0
    0.0000    0.0000    0.0000 C   0  0
    0.0000    0.0000    0.0000 C   0  0
    0.0000    0.0000    0.0000 C   0  0
    0.0000    0.0000    0.0000 C   0  0
    0.0000    0.0000    0.0000 C   0  0
    0.0000    0.0000    0.0000 N   0  0
    0.0000    0.0000    0.0000 C   0  0
    0.0000    0.0000    0.0000 C   0  0
    0.0000    0.0000    0.0000 C   0  0
    0.0000    0.0000    0.0000 C   0  0
    0.0000    0.0000    0.0000 N   0  0
    0.0000    0.0000    0.0000 N   0  0
    0.0000    0.0000    0.0000 C   0  0
    0.0000    0.0000    0.0000 N   0  0
    0.0000    0.0000    0.0000 N   0  0
    0.0000    0.0000    0.0000 C   0  0
    0.0000    0.0000    0.0000 C   0  0  1  0  0  0
    0.0000    0.0000    0.0000 C   0  0
    0.0000    0.0000    0.0000 C   0  0
    0.0000    0.0000    0.0000 C   0  0  1  0  0  0
    0.0000    0.0000    0.0000 C   0  0
    0.0000    0.0000    0.0000 O   0  0
    0.0000    0.0000    0.0000 O   0  0
    0.0000    0.0000    0.0000 C   0  0
    0.0000    0.0000    0.0000 C   0  0
    0.0000    0.0000    0.0000 N   0  0
    0.0000    0.0000    0.0000 C   0  0
    0.0000    0.0000    0.0000 Cl  0  0
  1  2  1  0
  2  3  1  0
  3  4  2  3
  4  5  1  0
  5  6  2  3
  6  7  1  0
  7  8  2  3
  8  3  1  0
  8  9  1  0
  9 10  1  0
 10 11  1  0
 11 12  2  3
 12 13  1  0
 13 14  1  0
 13 15  2  3
 15 16  1  0
 16 17  2  3
 17 18  1  0
 18 12  1  0
 19 18  1  6
 19 20  1  0
 20 21  1  1
 21 22  1  0
 23 22  1  1
 23 24  1  0
 24 25  1  6
 24 26  2  0
 23 27  1  0
 27 28  1  0
 28 20  1  0
 19 29  2  3
 29 11  1  0
 10 30  2  3
 30  7  1  0
M  END
> <smiles>
COC1=CC=CC2=C1NC(C3=C4C(N)=NC=NN4[C@]([C@H]5CC[C@@H]([C@](O)=O)CC5)=N3)=C2.Cl

> <facility_reagent_id>
HMSL10063

> <salt_id>
101

> <chemical_name>
OSI-027

> <inchi>
InChI=1S/C21H22N6O3.ClH/c1-30-15-4-2-3-13-9-14(25-16(13)15)17-18-19(22)23-10-24-27(18)20(26-17)11-5-7-12(8-6-11)21(28)29;/h2-4,9-12,25H,5-8H2,1H3,(H,28,29)(H2,22,23,24);1H/t11-,12+

> <inchi_key>

> <chebi_id>

> <lincs_id>

> <pubchem_cid>
n/a

> <chembl_id>
n/a

> <molecular_mass>
442.9

> <molecular_formula>
C21H23ClN6O3

$$$$

  SciTegic08031211342D

 38 44  0  0  0  0            999 V2000
    0.0000    0.0000    0.0000 O   0  0
    0.0000    0.0000    0.0000 C   0  0
    0.0000    0.0000    0.0000 N   0  0
    0.0000    0.0000    0.0000 C   0  0
    0.0000    0.0000    0.0000 C   0  0
    0.0000    0.0000    0.0000 C   0  0
    0.0000    0.0000    0.0000 C   0  0
    0.0000    0.0000    0.0000 C   0  0
    0.0000    0.0000    0.0000 C   0  0
    0.0000    0.0000    0.0000 C   0  0
    0.0000    0.0000    0.0000 N   0  0
    0.0000    0.0000    0.0000 C   0  0
    0.0000    0.0000    0.0000 N   0  0
    0.0000    0.0000    0.0000 C   0  0
    0.0000    0.0000    0.0000 C   0  0
    0.0000    0.0000    0.0000 O   0  0
    0.0000    0.0000    0.0000 C   0  0
    0.0000    0.0000    0.0000 C   0  0
    0.0000    0.0000    0.0000 C   0  0
    0.0000    0.0000    0.0000 C   0  0
    0.0000    0.0000    0.0000 C   0  0
    0.0000    0.0000    0.0000 C   0  0
    0.0000    0.0000    0.0000 N   0  0
    0.0000    0.0000    0.0000 N   0  0
    0.0000    0.0000    0.0000 C   0  0
    0.0000    0.0000    0.0000 C   0  0
    0.0000    0.0000    0.0000 C   0  0
    0.0000    0.0000    0.0000 C   0  0
    0.0000    0.0000    0.0000 C   0  0
    0.0000    0.0000    0.0000 O   0  0
    0.0000    0.0000    0.0000 C   0  0
    0.0000    0.0000    0.0000 C   0  0
    0.0000    0.0000    0.0000 O   0  0
    0.0000    0.0000    0.0000 C   0  0
    0.0000    0.0000    0.0000 C   0  0
    0.0000    0.0000    0.0000 N   0  0
    0.0000    0.0000    0.0000 N   0  0
    0.0000    0.0000    0.0000 C   0  0
  1  2  2  0
  2  3  1  0
  3  4  1  0
  4  5  2  3
  5  6  1  0
  6  7  2  3
  7  8  1  0
  8  9  2  3
  9  4  1  0
  7 10  1  0
 10 11  2  3
 11 12  1  0
 12 13  1  0
 13 14  1  0
 14 15  1  0
 15 16  1  0
 16 17  1  0
 17 18  1  0
 18 13  1  0
 17 19  1  0
 19 20  1  0
 20 15  1  0
 12 21  2  3
 21 22  1  0
 22 23  1  0
 23 24  1  0
 24 25  2  3
 25 21  1  0
 23 26  1  0
 26 27  1  0
 27 28  1  0
 28 29  1  0
 29 30  1  0
 30 31  1  0
 31 32  1  0
 32 33  1  0
 33 29  1  0
 29 34  1  0
 34 35  1  0
 35 26  1  0
 22 36  2  3
 36 10  1  0
  2 37  1  0
 37 38  1  0
M  END
> <smiles>
O=C(NC7=CC=C(C=C7)C1=NC(N3CC2OC(C3)CC2)=C6C(N(N=C6)C4CCC5(OCCO5)CC4)=N1)NC

> <facility_reagent_id>
HMSL10064

> <salt_id>
101

> <chemical_name>
WYE-125132

> <inchi>
InChI=1S/C27H33N7O4/c1-28-26(35)30-18-4-2-17(3-5-18)23-31-24(33-15-20-6-7-21(16-33)38-20)22-14-29-34(25(22)32-23)19-8-10-27(11-9-19)36-12-13-37-27/h2-5,14,19-21H,6-13,15-16H2,1H3,(H2,28,30,35)

> <inchi_key>

> <chebi_id>

> <lincs_id>

> <pubchem_cid>
n/a

> <chembl_id>
n/a

> <molecular_mass>
519.26

> <molecular_formula>
C27H33N7O4

$$$$

  SciTegic08031211342D

 42 46  0  0  0  0            999 V2000
    0.0000    0.0000    0.0000 O   0  0
    0.0000    0.0000    0.0000 C   0  0
    0.0000    0.0000    0.0000 N   0  0
    0.0000    0.0000    0.0000 C   0  0
    0.0000    0.0000    0.0000 C   0  0
    0.0000    0.0000    0.0000 C   0  0
    0.0000    0.0000    0.0000 C   0  0
    0.0000    0.0000    0.0000 C   0  0
    0.0000    0.0000    0.0000 C   0  0
    0.0000    0.0000    0.0000 Cl  0  0
    0.0000    0.0000    0.0000 C   0  0
    0.0000    0.0000    0.0000 C   0  0
    0.0000    0.0000    0.0000 C   0  0
    0.0000    0.0000    0.0000 C   0  0
    0.0000    0.0000    0.0000 N   0  0
    0.0000    0.0000    0.0000 C   0  0
    0.0000    0.0000    0.0000 N   0  0
    0.0000    0.0000    0.0000 C   0  0
    0.0000    0.0000    0.0000 N   0  0
    0.0000    0.0000    0.0000 C   0  0
    0.0000    0.0000    0.0000 C   0  0
    0.0000    0.0000    0.0000 C   0  0
    0.0000    0.0000    0.0000 C   0  0
    0.0000    0.0000    0.0000 C   0  0
    0.0000    0.0000    0.0000 C   0  0
    0.0000    0.0000    0.0000 N   0  0
    0.0000    0.0000    0.0000 C   0  0
    0.0000    0.0000    0.0000 C   0  0
    0.0000    0.0000    0.0000 N   0  0
    0.0000    0.0000    0.0000 C   0  0
    0.0000    0.0000    0.0000 C   0  0
    0.0000    0.0000    0.0000 C   0  0
    0.0000    0.0000    0.0000 C   0  0
    0.0000    0.0000    0.0000 O   0  0
    0.0000    0.0000    0.0000 C   0  0
    0.0000    0.0000    0.0000 C   0  0
    0.0000    0.0000    0.0000 N   0  0
    0.0000    0.0000    0.0000 C   0  0
    0.0000    0.0000    0.0000 C   0  0
    0.0000    0.0000    0.0000 F   0  0
    0.0000    0.0000    0.0000 C   0  0
    0.0000    0.0000    0.0000 C   0  0
  1  2  2  0
  2  3  1  0
  3  4  1  0
  4  5  2  3
  5  6  1  0
  6  7  2  3
  7  8  1  0
  8  9  2  3
  9  4  1  0
  9 10  1  0
  2 11  1  0
 11 12  2  3
 12 13  1  0
 13 14  2  3
 14 15  1  0
 15 16  1  0
 16 17  2  3
 17 18  1  0
 18 19  1  0
 19 20  1  0
 20 21  2  3
 21 22  1  0
 22 23  2  3
 23 24  1  0
 24 25  1  0
 25 26  1  0
 26 27  1  0
 27 28  1  0
 28 29  1  0
 29 30  1  0
 30 31  1  0
 29 32  1  0
 32 33  1  0
 33 26  1  0
 25 34  2  0
 23 35  1  0
 35 36  2  3
 36 20  1  0
 18 37  2  3
 37 38  1  0
 38 39  2  3
 39 16  1  0
 39 40  1  0
 14 41  1  0
 41 42  2  3
 42 11  1  0
M  END
> <smiles>
O=C(NC1=CC=CC=C1Cl)C2=CC=C(NC3=NC(NC4=CC=C(CC(N5CCN(CC)CC5)=O)C=C4)=NC=C3F)C=C2

> <facility_reagent_id>
HMSL10065

> <salt_id>
101

> <chemical_name>
KIN001-220

> <inchi>
InChI=1S/C31H31ClFN7O2/c1-2-39-15-17-40(18-16-39)28(41)19-21-7-11-24(12-8-21)36-31-34-20-26(33)29(38-31)35-23-13-9-22(10-14-23)30(42)37-27-6-4-3-5-25(27)32/h3-14,20H,2,15-19H2,1H3,(H,37,42)(H2,34,35,3
6,38)

> <inchi_key>

> <chebi_id>

> <lincs_id>

> <pubchem_cid>
n/a

> <chembl_id>
n/a

> <molecular_mass>
588.07

> <molecular_formula>
C31H31ClFN7O2

$$$$

  SciTegic08031211342D

 34 38  0  0  0  0            999 V2000
    0.0000    0.0000    0.0000 O   0  0
    0.0000    0.0000    0.0000 C   0  0
    0.0000    0.0000    0.0000 O   0  0
    0.0000    0.0000    0.0000 C   0  0
    0.0000    0.0000    0.0000 C   0  0
    0.0000    0.0000    0.0000 C   0  0
    0.0000    0.0000    0.0000 C   0  0
    0.0000    0.0000    0.0000 N   0  0
    0.0000    0.0000    0.0000 C   0  0
    0.0000    0.0000    0.0000 N   0  0
    0.0000    0.0000    0.0000 C   0  0
    0.0000    0.0000    0.0000 C   0  0
    0.0000    0.0000    0.0000 C   0  0
    0.0000    0.0000    0.0000 N   0  0
    0.0000    0.0000    0.0000 C   0  0
    0.0000    0.0000    0.0000 C   0  0
    0.0000    0.0000    0.0000 C   0  0
    0.0000    0.0000    0.0000 F   0  0
    0.0000    0.0000    0.0000 C   0  0
    0.0000    0.0000    0.0000 C   0  0
    0.0000    0.0000    0.0000 C   0  0
    0.0000    0.0000    0.0000 C   0  0
    0.0000    0.0000    0.0000 F   0  0
    0.0000    0.0000    0.0000 C   0  0
    0.0000    0.0000    0.0000 C   0  0
    0.0000    0.0000    0.0000 C   0  0
    0.0000    0.0000    0.0000 Cl  0  0
    0.0000    0.0000    0.0000 C   0  0
    0.0000    0.0000    0.0000 C   0  0
    0.0000    0.0000    0.0000 C   0  0
    0.0000    0.0000    0.0000 C   0  0
    0.0000    0.0000    0.0000 N   0  0
    0.0000    0.0000    0.0000 C   0  0
    0.0000    0.0000    0.0000 C   0  0
  1  2  2  0
  2  3  1  0
  2  4  1  0
  4  5  2  3
  5  6  1  0
  6  7  2  3
  7  8  1  0
  8  9  1  0
  9 10  2  3
 10 11  1  0
 11 12  2  3
 12 13  1  0
 13 14  1  0
 14 15  2  3
 15 16  1  0
 16 17  2  3
 17 18  1  0
 17 19  1  0
 19 20  2  3
 20 21  1  0
 21 22  2  3
 22 16  1  0
 22 23  1  0
 15 24  1  0
 24 25  2  3
 25 26  1  0
 26 27  1  0
 26 28  2  3
 28 29  1  0
 29 30  2  3
 30 24  1  0
 30 31  1  0
 31 12  1  0
 31 32  2  3
 32  9  1  0
  7 33  1  0
 33 34  2  3
 34  4  1  0
M  END
> <smiles>
O=C(O)C1=CC=C(NC2=NC=C3CN=C(C4=C(F)C=CC=C4F)C5=CC(Cl)=CC=C5C3=N2)C=C1

> <facility_reagent_id>
HMSL10066

> <salt_id>
101

> <chemical_name>
MLN8054

> <inchi>
InChI=1S/C25H15ClF2N4O2/c26-15-6-9-17-18(10-15)23(21-19(27)2-1-3-20(21)28)29-11-14-12-30-25(32-22(14)17)31-16-7-4-13(5-8-16)24(33)34/h1-10,12H,11H2,(H,33,34)(H,30,31,32)

> <inchi_key>

> <chebi_id>

> <lincs_id>

> <pubchem_cid>
11712649

> <chembl_id>
259084

> <molecular_mass>
476.86

> <molecular_formula>
C25H15ClF2N4O2

$$$$

  SciTegic08031211342D

 37 40  0  0  0  0            999 V2000
    0.0000    0.0000    0.0000 O   0  0
    0.0000    0.0000    0.0000 C   0  0
    0.0000    0.0000    0.0000 N   0  0
    0.0000    0.0000    0.0000 C   0  0
    0.0000    0.0000    0.0000 C   0  0
    0.0000    0.0000    0.0000 C   0  0
    0.0000    0.0000    0.0000 C   0  0
    0.0000    0.0000    0.0000 C   0  0
    0.0000    0.0000    0.0000 F   0  0
    0.0000    0.0000    0.0000 C   0  0
    0.0000    0.0000    0.0000 C   0  0
    0.0000    0.0000    0.0000 C   0  0
    0.0000    0.0000    0.0000 N   0  0
    0.0000    0.0000    0.0000 N   0  0
    0.0000    0.0000    0.0000 C   0  0
    0.0000    0.0000    0.0000 N   0  0
    0.0000    0.0000    0.0000 C   0  0
    0.0000    0.0000    0.0000 C   0  0
    0.0000    0.0000    0.0000 C   0  0
    0.0000    0.0000    0.0000 C   0  0
    0.0000    0.0000    0.0000 C   0  0
    0.0000    0.0000    0.0000 O   0  0
    0.0000    0.0000    0.0000 C   0  0
    0.0000    0.0000    0.0000 C   0  0
    0.0000    0.0000    0.0000 C   0  0
    0.0000    0.0000    0.0000 N   0  0
    0.0000    0.0000    0.0000 C   0  0
    0.0000    0.0000    0.0000 C   0  0
    0.0000    0.0000    0.0000 C   0  0
    0.0000    0.0000    0.0000 C   0  0
    0.0000    0.0000    0.0000 O   0  0
    0.0000    0.0000    0.0000 C   0  0
    0.0000    0.0000    0.0000 C   0  0
    0.0000    0.0000    0.0000 N   0  0
    0.0000    0.0000    0.0000 C   0  0
    0.0000    0.0000    0.0000 N   0  0
    0.0000    0.0000    0.0000 C   0  0
  1  2  2  0
  2  3  1  0
  3  4  1  0
  4  5  2  3
  5  6  1  0
  6  7  2  3
  7  8  1  0
  8  9  1  0
  8 10  2  3
 10  4  1  0
  2 11  1  0
 11 12  1  0
 12 13  2  3
 13 14  1  0
 14 15  1  0
 15 16  1  0
 16 17  1  0
 17 18  2  3
 18 19  1  0
 19 20  2  3
 20 21  1  0
 21 22  1  0
 22 23  1  0
 23 24  1  0
 24 25  1  0
 25 26  1  0
 26 27  1  0
 27 28  1  0
 26 29  1  0
 29 30  1  0
 30 31  1  0
 21 32  2  3
 32 33  1  0
 33 18  1  0
 33 34  2  3
 34 35  1  0
 35 36  2  3
 36 17  1  0
 15 37  2  3
 37 12  1  0
M  END
> <smiles>
O=C(NC1=CC=CC(F)=C1)CC2=NNC(NC3=C4C=CC(OCCCN(CC)CCO)=CC4=NC=N3)=C2

> <facility_reagent_id>
HMSL10067

> <salt_id>
101

> <chemical_name>
AZD1152-HQPA; Barasertib

> <inchi>
InChI=1S/C26H30FN7O3/c1-2-34(10-11-35)9-4-12-37-21-7-8-22-23(16-21)28-17-29-26(22)31-24-14-20(32-33-24)15-25(36)30-19-6-3-5-18(27)13-19/h3,5-8,13-14,16-17,35H,2,4,9-12,15H2,1H3,(H,30,36)(H2,28,29,31,3
2,33)

> <inchi_key>

> <chebi_id>

> <lincs_id>

> <pubchem_cid>
16007391

> <chembl_id>
215152

> <molecular_mass>
507.56

> <molecular_formula>
C26H30FN7O3

$$$$

  SciTegic08031211342D

 33 36  0  0  0  0            999 V2000
    0.0000    0.0000    0.0000 Cl  0  0
    0.0000    0.0000    0.0000 C   0  0
    0.0000    0.0000    0.0000 C   0  0
    0.0000    0.0000    0.0000 C   0  0
    0.0000    0.0000    0.0000 C   0  0
    0.0000    0.0000    0.0000 C   0  0
    0.0000    0.0000    0.0000 C   0  0
    0.0000    0.0000    0.0000 C   0  0
    0.0000    0.0000    0.0000 C   0  0
    0.0000    0.0000    0.0000 N   0  0
    0.0000    0.0000    0.0000 C   0  0
    0.0000    0.0000    0.0000 N   0  0
    0.0000    0.0000    0.0000 C   0  0
    0.0000    0.0000    0.0000 C   0  0
    0.0000    0.0000    0.0000 C   0  0
    0.0000    0.0000    0.0000 C   0  0
    0.0000    0.0000    0.0000 C   0  0
    0.0000    0.0000    0.0000 F   0  0
    0.0000    0.0000    0.0000 C   0  0
    0.0000    0.0000    0.0000 N   0  0
    0.0000    0.0000    0.0000 S   0  0
    0.0000    0.0000    0.0000 C   0  0
    0.0000    0.0000    0.0000 C   0  0
    0.0000    0.0000    0.0000 C   0  0
    0.0000    0.0000    0.0000 O   0  0
    0.0000    0.0000    0.0000 O   0  0
    0.0000    0.0000    0.0000 C   0  0
    0.0000    0.0000    0.0000 C   0  0
    0.0000    0.0000    0.0000 C   0  0
    0.0000    0.0000    0.0000 F   0  0
    0.0000    0.0000    0.0000 O   0  0
    0.0000    0.0000    0.0000 C   0  0
    0.0000    0.0000    0.0000 C   0  0
  1  2  1  0
  2  3  1  0
  3  4  2  3
  2  5  2  3
  5  6  1  0
  6  7  2  3
  7  4  1  0
  7  8  1  0
  8  9  2  3
  9 10  1  0
 10 11  2  3
 11 12  1  0
 12 13  1  0
 13 14  2  3
 14 15  1  0
 15 16  1  0
 16 17  2  3
 17 18  1  0
 17 19  1  0
 19 20  1  0
 20 21  1  0
 21 22  1  0
 22 23  1  0
 23 24  1  0
 21 25  2  0
 21 26  2  0
 19 27  2  3
 27 28  1  0
 28 29  2  3
 29 16  1  0
 29 30  1  0
 15 31  2  0
 11 32  1  0
 32 14  1  0
 32 33  2  3
 33  8  1  0
M  END
> <smiles>
ClC(C=C3)=CC=C3C1=CN=C(NC=C2C(C4=C(F)C(NS(CCC)(=O)=O)=CC=C4F)=O)C2=C1

> <facility_reagent_id>
HMSL10068

> <salt_id>
101

> <chemical_name>
PLX4032; RG7204; R7204; RO5185426

> <inchi>
InChI=1S/C23H18ClF2N3O3S/c1-2-9-33(31,32)29-19-8-7-18(25)20(21(19)26)22(30)17-12-28-23-16(17)10-14(11-27-23)13-3-5-15(24)6-4-13/h3-8,10-12,29H,2,9H2,1H3,(H,27,28)

> <inchi_key>

> <chebi_id>

> <lincs_id>

> <pubchem_cid>
n/a

> <chembl_id>
n/a

> <molecular_mass>
489.07

> <molecular_formula>
C23H18ClF2N3O3S

$$$$

  SciTegic08031211342D

 39 45  0  0  0  0            999 V2000
    0.0000    0.0000    0.0000 C   0  0
    0.0000    0.0000    0.0000 N   0  0
    0.0000    0.0000    0.0000 C   0  0
    0.0000    0.0000    0.0000 C   0  0
    0.0000    0.0000    0.0000 C   0  0
    0.0000    0.0000    0.0000 C   0  0
    0.0000    0.0000    0.0000 C   0  0
    0.0000    0.0000    0.0000 C   0  0
    0.0000    0.0000    0.0000 C   0  0
    0.0000    0.0000    0.0000 C   0  0
    0.0000    0.0000    0.0000 C   0  0
    0.0000    0.0000    0.0000 C   0  0
    0.0000    0.0000    0.0000 N   0  0
    0.0000    0.0000    0.0000 C   0  0
    0.0000    0.0000    0.0000 O   0  0
    0.0000    0.0000    0.0000 O   0  0
    0.0000    0.0000    0.0000 C   0  0
    0.0000    0.0000    0.0000 C   0  0
    0.0000    0.0000    0.0000 N   0  0
    0.0000    0.0000    0.0000 C   0  0
    0.0000    0.0000    0.0000 C   0  0
    0.0000    0.0000    0.0000 C   0  0
    0.0000    0.0000    0.0000 N   0  0
    0.0000    0.0000    0.0000 C   0  0
    0.0000    0.0000    0.0000 C   0  0
    0.0000    0.0000    0.0000 N   0  0
    0.0000    0.0000    0.0000 C   0  0
    0.0000    0.0000    0.0000 C   0  0
    0.0000    0.0000    0.0000 C   0  0
    0.0000    0.0000    0.0000 C   0  0
    0.0000    0.0000    0.0000 C   0  0
    0.0000    0.0000    0.0000 C   0  0
    0.0000    0.0000    0.0000 C   0  0
    0.0000    0.0000    0.0000 C   0  0
    0.0000    0.0000    0.0000 C   0  0
    0.0000    0.0000    0.0000 C   0  0
    0.0000    0.0000    0.0000 C   0  0
    0.0000    0.0000    0.0000 C   0  0
    0.0000    0.0000    0.0000 C   0  0
  1  2  1  0
  2  3  1  0
  3  4  2  3
  4  5  1  0
  5  6  2  3
  6  7  1  0
  7  8  2  3
  8  3  1  0
  4  9  1  0
  9 10  1  0
 10 11  2  3
 11 12  1  0
 12 13  1  0
 13 14  1  0
 14 10  1  0
 14 15  2  0
 12 16  2  0
 11 17  1  0
 17 18  2  3
 18 19  1  0
 19 20  1  0
 20 21  1  0
 21 22  1  0
 22 23  1  0
 23 24  1  0
 24 25  1  0
 25 26  2  3
 26 27  1  0
 27 28  2  3
 28 29  1  0
 29 30  2  3
 30 25  1  0
 23 31  1  0
 31 32  1  0
 32 20  1  0
 19 33  1  0
 33 34  2  3
 34 35  1  0
 35 36  2  3
 36 37  1  0
 37 38  2  3
 38 33  1  0
 38 17  1  0
  9 39  2  3
 39  2  1  0
M  END
> <smiles>
CN1C7=C(C=CC=C7)C(C6=C(C(NC6=O)=O)C3=CN(C4CCN(CC5=NC=CC=C5)CC4)C2=CC=CC=C23)=C1

> <facility_reagent_id>
HMSL10069

> <salt_id>
101

> <chemical_name>
LY317615; Enzastaurin

> <inchi>
InChI=1S/C32H29N5O2/c1-35-19-25(23-9-2-4-11-27(23)35)29-30(32(39)34-31(29)38)26-20-37(28-12-5-3-10-24(26)28)22-13-16-36(17-14-22)18-21-8-6-7-15-33-21/h2-12,15,19-20,22H,13-14,16-18H2,1H3,(H,34,38,39)

> <inchi_key>

> <chebi_id>

> <lincs_id>

> <pubchem_cid>
n/a

> <chembl_id>
n/a

> <molecular_mass>
515.23

> <molecular_formula>
C32H29N5O2

$$$$

  SciTegic08031211342D

 38 42  0  0  0  0            999 V2000
    0.0000    0.0000    0.0000 C   0  0
    0.0000    0.0000    0.0000 N   0  0
    0.0000    0.0000    0.0000 C   0  0
    0.0000    0.0000    0.0000 C   0  0
    0.0000    0.0000    0.0000 N   0  0
    0.0000    0.0000    0.0000 C   0  0
    0.0000    0.0000    0.0000 N   0  0
    0.0000    0.0000    0.0000 C   0  0
    0.0000    0.0000    0.0000 N   0  0
    0.0000    0.0000    0.0000 C   0  0
    0.0000    0.0000    0.0000 C   0  0
    0.0000    0.0000    0.0000 C   0  0
    0.0000    0.0000    0.0000 O   0  0
    0.0000    0.0000    0.0000 C   0  0
    0.0000    0.0000    0.0000 C   0  0
    0.0000    0.0000    0.0000 C   0  0
    0.0000    0.0000    0.0000 C   0  0
    0.0000    0.0000    0.0000 C   0  0
    0.0000    0.0000    0.0000 C   0  0
    0.0000    0.0000    0.0000 N   0  0
    0.0000    0.0000    0.0000 C   0  0
    0.0000    0.0000    0.0000 C   0  0
    0.0000    0.0000    0.0000 C   0  0
    0.0000    0.0000    0.0000 C   0  0
    0.0000    0.0000    0.0000 C   0  0
    0.0000    0.0000    0.0000 C   0  0
    0.0000    0.0000    0.0000 C   0  0
    0.0000    0.0000    0.0000 N   0  0
    0.0000    0.0000    0.0000 C   0  0
    0.0000    0.0000    0.0000 C   0  0
    0.0000    0.0000    0.0000 C   0  0
    0.0000    0.0000    0.0000 N   0  0
    0.0000    0.0000    0.0000 C   0  0
    0.0000    0.0000    0.0000 C   0  0
    0.0000    0.0000    0.0000 C   0  0
    0.0000    0.0000    0.0000 O   0  0
    0.0000    0.0000    0.0000 O   0  0
    0.0000    0.0000    0.0000 C   0  0
  1  2  1  0
  2  3  1  0
  3  4  2  3
  4  5  1  0
  5  6  2  3
  6  7  1  0
  7  8  2  3
  8  3  1  0
  8  9  1  0
  9 10  1  0
 10 11  1  0
 11 12  1  0
 12  2  1  0
 12 13  2  0
 10 14  1  0
  9 15  1  0
 15 16  1  0
 16 17  1  0
 17 18  1  0
 18 19  1  0
 19 15  1  0
  6 20  1  0
 20 21  1  0
 21 22  2  3
 22 23  1  0
 23 24  2  3
 24 25  1  0
 25 26  2  3
 26 21  1  0
 24 27  1  0
 27 28  1  0
 28 29  1  0
 29 30  1  0
 30 31  1  0
 31 32  1  0
 32 33  1  0
 33 34  1  0
 34 29  1  0
 32 35  1  0
 27 36  2  0
 22 37  1  0
 37 38  1  0
M  END
> <smiles>
CN1C2=CN=C(N=C2N(C(CC1=O)C)C3CCCC3)NC4=C(C=C(C=C4)C(NC5CCN(CC5)C)=O)OC

> <facility_reagent_id>
HMSL10070

> <salt_id>
101

> <chemical_name>
NPK76-II-72-1

> <inchi>
InChI=1S/C28H39N7O3/c1-18-15-25(36)34(3)23-17-29-28(32-26(23)35(18)21-7-5-6-8-21)31-22-10-9-19(16-24(22)38-4)27(37)30-20-11-13-33(2)14-12-20/h9-10,16-18,20-21H,5-8,11-15H2,1-4H3,(H,30,37)(H,29,31,32)

> <inchi_key>

> <chebi_id>

> <lincs_id>

> <pubchem_cid>
n/a

> <chembl_id>
n/a

> <molecular_mass>
521.65

> <molecular_formula>
C28H39N7O3

$$$$

  SciTegic08031211342D

 33 37  0  0  0  0            999 V2000
    0.0000    0.0000    0.0000 O   0  0
    0.0000    0.0000    0.0000 C   0  0
    0.0000    0.0000    0.0000 C   0  0
    0.0000    0.0000    0.0000 C   0  0
    0.0000    0.0000    0.0000 C   0  0
    0.0000    0.0000    0.0000 O   0  0
    0.0000    0.0000    0.0000 C   0  0
    0.0000    0.0000    0.0000 C   0  0
    0.0000    0.0000    0.0000 C   0  0
    0.0000    0.0000    0.0000 C   0  0
    0.0000    0.0000    0.0000 N   0  0
    0.0000    0.0000    0.0000 C   0  0
    0.0000    0.0000    0.0000 N   0  0
    0.0000    0.0000    0.0000 C   0  0
    0.0000    0.0000    0.0000 N   0  0
    0.0000    0.0000    0.0000 C   0  0
    0.0000    0.0000    0.0000 C   0  0
    0.0000    0.0000    0.0000 N   0  0
    0.0000    0.0000    0.0000 C   0  0
    0.0000    0.0000    0.0000 C   0  0
    0.0000    0.0000    0.0000 N   0  0
    0.0000    0.0000    0.0000 C   0  0
    0.0000    0.0000    0.0000 C   0  0
    0.0000    0.0000    0.0000 C   0  0
    0.0000    0.0000    0.0000 C   0  0
    0.0000    0.0000    0.0000 N   0  0
    0.0000    0.0000    0.0000 C   0  0
    0.0000    0.0000    0.0000 N   0  0
    0.0000    0.0000    0.0000 C   0  0
    0.0000    0.0000    0.0000 C   0  0
    0.0000    0.0000    0.0000 C   0  0
    0.0000    0.0000    0.0000 C   0  0
    0.0000    0.0000    0.0000 C   0  0
  1  2  2  0
  2  3  1  0
  3  4  1  0
  4  5  1  0
  4  6  2  0
  3  7  2  3
  7  8  1  0
  7  9  1  0
  9 10  2  3
 10 11  1  0
 11 12  2  3
 12 13  1  0
 13 14  1  0
 14 15  2  3
 15 16  1  0
 16 17  2  3
 17 18  1  0
 18 19  1  0
 19 20  1  0
 20 21  1  0
 21 22  1  0
 22 23  1  0
 23 18  1  0
 17 24  1  0
 24 25  2  3
 25 14  1  0
 12 26  1  0
 26 27  2  3
 27  9  1  0
 27 28  1  0
 28  2  1  0
 28 29  1  0
 29 30  1  0
 30 31  1  0
 31 32  1  0
 32 33  1  0
 33 29  1  0
M  END
> <smiles>
O=C1C(C(C)=O)=C(C)C2=CN=C(NC3=NC=C(N4CCNCC4)C=C3)N=C2N1C5CCCC5

> <facility_reagent_id>
HMSL10071

> <salt_id>
101

> <chemical_name>
PD0332991

> <inchi>
InChI=1S/C24H29N7O2/c1-15-19-14-27-24(28-20-8-7-18(13-26-20)30-11-9-25-10-12-30)29-22(19)31(17-5-3-4-6-17)23(33)21(15)16(2)32/h7-8,13-14,17,25H,3-6,9-12H2,1-2H3,(H,26,27,28,29)

> <inchi_key>

> <chebi_id>

> <lincs_id>

> <pubchem_cid>
5330286

> <chembl_id>
189963

> <molecular_mass>
447.53

> <molecular_formula>
C24H29N7O2

$$$$

  SciTegic08031211342D

 35 38  0  0  0  0            999 V2000
    0.0000    0.0000    0.0000 O   0  0
    0.0000    0.0000    0.0000 C   0  0
    0.0000    0.0000    0.0000 N   0  0
    0.0000    0.0000    0.0000 C   0  0
    0.0000    0.0000    0.0000 C   0  0
    0.0000    0.0000    0.0000 C   0  0
    0.0000    0.0000    0.0000 C   0  0
    0.0000    0.0000    0.0000 C   0  0
    0.0000    0.0000    0.0000 C   0  0
    0.0000    0.0000    0.0000 N   0  0
    0.0000    0.0000    0.0000 C   0  0
    0.0000    0.0000    0.0000 N   0  0
    0.0000    0.0000    0.0000 C   0  0
    0.0000    0.0000    0.0000 C   0  0
    0.0000    0.0000    0.0000 C   0  0
    0.0000    0.0000    0.0000 F   0  0
    0.0000    0.0000    0.0000 F   0  0
    0.0000    0.0000    0.0000 F   0  0
    0.0000    0.0000    0.0000 C   0  0
    0.0000    0.0000    0.0000 N   0  0
    0.0000    0.0000    0.0000 C   0  0
    0.0000    0.0000    0.0000 C   0  0
    0.0000    0.0000    0.0000 C   0  0
    0.0000    0.0000    0.0000 C   0  0
    0.0000    0.0000    0.0000 C   0  0
    0.0000    0.0000    0.0000 N   0  0
    0.0000    0.0000    0.0000 C   0  0
    0.0000    0.0000    0.0000 N   0  0
    0.0000    0.0000    0.0000 S   0  0
    0.0000    0.0000    0.0000 O   0  0
    0.0000    0.0000    0.0000 C   0  0
    0.0000    0.0000    0.0000 O   0  0
    0.0000    0.0000    0.0000 C   0  0
    0.0000    0.0000    0.0000 N   0  0
    0.0000    0.0000    0.0000 C   0  0
  1  2  2  0
  2  3  1  0
  2  4  1  0
  4  5  1  0
  5  6  2  3
  6  3  1  0
  6  7  1  0
  7  8  2  3
  8  9  1  0
  9 10  1  0
 10 11  1  0
 11 12  2  3
 12 13  1  0
 13 14  2  3
 14 15  1  0
 15 16  1  0
 15 17  1  0
 15 18  1  0
 14 19  1  0
 19 20  1  0
 20 21  1  0
 21 22  1  0
 22 23  2  3
 23 24  1  0
 24 25  2  3
 25 26  1  0
 26 27  2  3
 27 22  1  0
 27 28  1  0
 28 29  1  0
 29 30  2  0
 29 31  1  0
 29 32  2  0
 28 33  1  0
 19 34  2  3
 34 11  1  0
  9 35  2  3
 35  5  1  0
M  END
> <smiles>
O=C(N1)CC2=C1C=CC(NC3=NC=C(C(F)(F)F)C(NCC4=CC=CN=C4N(S(=O)(C)=O)C)=N3)=C2

> <facility_reagent_id>
HMSL10072

> <salt_id>
101

> <chemical_name>
PF562271; KIN001-205

> <inchi>
InChI=1S/C21H20F3N7O3S/c1-31(35(2,33)34)19-12(4-3-7-25-19)10-26-18-15(21(22,23)24)11-27-20(30-18)28-14-5-6-16-13(8-14)9-17(32)29-16/h3-8,11H,9-10H2,1-2H3,(H,29,32)(H2,26,27,28,30)

> <inchi_key>

> <chebi_id>

> <lincs_id>

> <pubchem_cid>
n/a

> <chembl_id>
n/a

> <molecular_mass>
507.13

> <molecular_formula>
C21H20F3N7O3S

$$$$

  SciTegic08031211342D

 26 28  0  0  0  0            999 V2000
    0.0000    0.0000    0.0000 C   0  0
    0.0000    0.0000    0.0000 C   0  0
    0.0000    0.0000    0.0000 C   0  0
    0.0000    0.0000    0.0000 C   0  0
    0.0000    0.0000    0.0000 C   0  0
    0.0000    0.0000    0.0000 N   0  0
    0.0000    0.0000    0.0000 C   0  0
    0.0000    0.0000    0.0000 N   0  0
    0.0000    0.0000    0.0000 N   0  0
    0.0000    0.0000    0.0000 C   0  0
    0.0000    0.0000    0.0000 C   0  0
    0.0000    0.0000    0.0000 C   0  0
    0.0000    0.0000    0.0000 N   0  0
    0.0000    0.0000    0.0000 C   0  0
    0.0000    0.0000    0.0000 C   0  0
    0.0000    0.0000    0.0000 C   0  0
    0.0000    0.0000    0.0000 C   0  0
    0.0000    0.0000    0.0000 N   0  0
    0.0000    0.0000    0.0000 C   0  0
    0.0000    0.0000    0.0000 C   0  0
    0.0000    0.0000    0.0000 C   0  0
    0.0000    0.0000    0.0000 O   0  0
    0.0000    0.0000    0.0000 C   0  0
    0.0000    0.0000    0.0000 C   0  0
    0.0000    0.0000    0.0000 C   0  0
    0.0000    0.0000    0.0000 O   0  0
  1  2  1  0
  2  3  1  0
  2  4  1  0
  4  5  1  0
  5  6  1  0
  6  7  1  0
  7  8  2  3
  8  9  1  0
  9 10  1  0
 10 11  2  3
 11  7  1  0
 11 12  1  0
 12 13  1  0
 13 14  1  0
 14 15  1  0
 15 16  1  0
 16 17  1  0
 17 18  1  0
 18 19  1  0
 18 20  1  0
 20 21  1  0
 21 15  1  0
 14 22  2  0
 13 23  1  0
 23 10  1  0
 23 24  1  0
 23 25  1  0
  5 26  2  0
M  END
> <smiles>
CC(C)CC(NC1=NNC2=C1CN(C(C3CCN(C)CC3)=O)C2(C)C)=O

> <facility_reagent_id>
HMSL10073

> <salt_id>
101

> <chemical_name>
PHA-793887

> <inchi>
InChI=1S/C19H31N5O2/c1-12(2)10-15(25)20-17-14-11-24(19(3,4)16(14)21-22-17)18(26)13-6-8-23(5)9-7-13/h12-13H,6-11H2,1-5H3,(H2,20,21,22,25)

> <inchi_key>

> <chebi_id>

> <lincs_id>

> <pubchem_cid>
n/a

> <chembl_id>
n/a

> <molecular_mass>
361.48

> <molecular_formula>
C19H31N5O2

$$$$

  SciTegic08031211342D

 27 31  0  0  0  0            999 V2000
    0.0000    0.0000    0.0000 O   0  0
    0.0000    0.0000    0.0000 C   0  0
    0.0000    0.0000    0.0000 C   0  0
    0.0000    0.0000    0.0000 C   0  0
    0.0000    0.0000    0.0000 N   0  0
    0.0000    0.0000    0.0000 C   0  0
    0.0000    0.0000    0.0000 C   0  0
    0.0000    0.0000    0.0000 O   0  0
    0.0000    0.0000    0.0000 C   0  0
    0.0000    0.0000    0.0000 C   0  0
    0.0000    0.0000    0.0000 O   0  0
    0.0000    0.0000    0.0000 C   0  0
    0.0000    0.0000    0.0000 C   0  0
    0.0000    0.0000    0.0000 C   0  0
    0.0000    0.0000    0.0000 C   0  0
    0.0000    0.0000    0.0000 C   0  0
    0.0000    0.0000    0.0000 C   0  0
    0.0000    0.0000    0.0000 C   0  0
    0.0000    0.0000    0.0000 S   0  0
    0.0000    0.0000    0.0000 C   0  0
    0.0000    0.0000    0.0000 S   0  0
    0.0000    0.0000    0.0000 C   0  0
    0.0000    0.0000    0.0000 C   0  0
    0.0000    0.0000    0.0000 C   0  0
    0.0000    0.0000    0.0000 C   0  0
    0.0000    0.0000    0.0000 C   0  0
    0.0000    0.0000    0.0000 C   0  0
  1  2  2  0
  2  3  1  0
  3  4  2  3
  4  5  1  0
  5  6  1  0
  6  7  1  0
  7  8  1  0
  8  9  1  0
  9 10  1  0
 10  5  1  0
  4 11  1  0
  2 12  1  0
 12 13  2  3
 13 11  1  0
 13 14  1  0
 14 15  2  3
 15 16  1  0
 16 17  2  3
 17 18  1  0
 18 19  1  0
 18 20  2  3
 20 14  1  0
 20 21  1  0
 21 22  1  0
 22 23  2  3
 23 19  1  0
 23 24  1  0
 24 25  2  3
 25 26  1  0
 26 27  2  3
 27 22  1  0
M  END
> <smiles>
O=C(C=C(N1CCOCC1)O2)C=C2C3=CC=CC(S4)=C3SC5=C4C=CC=C5

> <facility_reagent_id>
HMSL10074

> <salt_id>
101

> <chemical_name>
KU55933

> <inchi>
InChI=1S/C21H17NO3S2/c23-14-12-16(25-20(13-14)22-8-10-24-11-9-22)15-4-3-7-19-21(15)27-18-6-2-1-5-17(18)26-19/h1-7,12-13H,8-11H2

> <inchi_key>

> <chebi_id>

> <lincs_id>

> <pubchem_cid>
n/a

> <chembl_id>
n/a

> <molecular_mass>
395.49

> <molecular_formula>
C21H17NO3S2

$$$$

  SciTegic08031211342D

 32 36  0  0  0  0            999 V2000
    0.0000    0.0000    0.0000 O   0  0
    0.0000    0.0000    0.0000 C   0  0
    0.0000    0.0000    0.0000 N   0  0
    0.0000    0.0000    0.0000 C   0  0
    0.0000    0.0000    0.0000 C   0  0
    0.0000    0.0000    0.0000 C   0  0
    0.0000    0.0000    0.0000 N   0  0
    0.0000    0.0000    0.0000 C   0  0
    0.0000    0.0000    0.0000 C   0  0
    0.0000    0.0000    0.0000 C   0  0
    0.0000    0.0000    0.0000 O   0  0
    0.0000    0.0000    0.0000 C   0  0
    0.0000    0.0000    0.0000 C   0  0
    0.0000    0.0000    0.0000 C   0  0
    0.0000    0.0000    0.0000 C   0  0
    0.0000    0.0000    0.0000 C   0  0
    0.0000    0.0000    0.0000 C   0  0
    0.0000    0.0000    0.0000 C   0  0
    0.0000    0.0000    0.0000 C   0  0
    0.0000    0.0000    0.0000 C   0  0
    0.0000    0.0000    0.0000 C   0  0
    0.0000    0.0000    0.0000 C   0  0
    0.0000    0.0000    0.0000 C   0  0
    0.0000    0.0000    0.0000 C   0  0
    0.0000    0.0000    0.0000 N   0  0
    0.0000    0.0000    0.0000 N   0  0
    0.0000    0.0000    0.0000 C   0  0
    0.0000    0.0000    0.0000 C   0  0
    0.0000    0.0000    0.0000 C   0  0
    0.0000    0.0000    0.0000 C   0  0
    0.0000    0.0000    0.0000 N   0  0
    0.0000    0.0000    0.0000 C   0  0
  1  2  2  0
  2  3  1  0
  3  4  1  0
  4  5  2  3
  5  6  1  0
  6  7  1  0
  7  8  1  0
  8  9  1  0
  9 10  2  0
  8 11  2  0
  6 12  2  3
 12 13  1  0
 12 14  1  0
 14 15  2  3
 15  4  1  0
  2 16  1  0
 16 17  2  3
 17 18  1  0
 18 19  2  3
 19  3  1  0
 19 20  1  0
 20 21  2  3
 21 22  1  0
 22 23  1  0
 23 24  2  3
 24 25  1  0
 25 26  1  0
 26 27  2  3
 27 23  1  0
 22 28  2  3
 28 29  1  0
 29 30  2  3
 30 20  1  0
 30 31  1  0
 31 32  2  3
 32 18  1  0
M  END
> <smiles>
O=C(N1C2=CC(NC(C=C)=O)=C(C)C=C2)C=CC3=C1C4=CC(C5=CNN=C5)=CC=C4N=C3

> <facility_reagent_id>
HMSL10075

> <salt_id>
101

> <chemical_name>
QL-X-138

> <inchi>
InChI=1S/C25H19N5O2/c1-3-23(31)29-22-11-19(7-4-15(22)2)30-24(32)9-6-17-12-26-21-8-5-16(10-20(21)25(17)30)18-13-27-28-14-18/h3-14H,1H2,2H3,(H,27,28)(H,29,31)

> <inchi_key>

> <chebi_id>

> <lincs_id>

> <pubchem_cid>
n/a

> <chembl_id>
n/a

> <molecular_mass>
421.45

> <molecular_formula>
C25H19N5O2

$$$$

  SciTegic08031211342D

 33 35  0  0  0  0            999 V2000
    0.0000    0.0000    0.0000 O   0  0
    0.0000    0.0000    0.0000 C   0  0
    0.0000    0.0000    0.0000 C   0  0
    0.0000    0.0000    0.0000 C   0  0
    0.0000    0.0000    0.0000 C   0  0
    0.0000    0.0000    0.0000 N   0  0
    0.0000    0.0000    0.0000 C   0  0
    0.0000    0.0000    0.0000 C   0  0
    0.0000    0.0000    0.0000 C   0  0
    0.0000    0.0000    0.0000 C   0  0
    0.0000    0.0000    0.0000 N   0  0
    0.0000    0.0000    0.0000 O   0  0
    0.0000    0.0000    0.0000 O   0  0
    0.0000    0.0000    0.0000 C   0  0
    0.0000    0.0000    0.0000 C   0  0
    0.0000    0.0000    0.0000 C   0  0
    0.0000    0.0000    0.0000 C   0  0
    0.0000    0.0000    0.0000 N   0  0
    0.0000    0.0000    0.0000 C   0  0
    0.0000    0.0000    0.0000 C   0  0
    0.0000    0.0000    0.0000 C   0  0
    0.0000    0.0000    0.0000 N   0  0
    0.0000    0.0000    0.0000 C   0  0
    0.0000    0.0000    0.0000 C   0  0
    0.0000    0.0000    0.0000 C   0  0
    0.0000    0.0000    0.0000 O   0  0
    0.0000    0.0000    0.0000 C   0  0
    0.0000    0.0000    0.0000 C   0  0
    0.0000    0.0000    0.0000 C   0  0
    0.0000    0.0000    0.0000 F   0  0
    0.0000    0.0000    0.0000 F   0  0
    0.0000    0.0000    0.0000 F   0  0
    0.0000    0.0000    0.0000 C   0  0
  1  2  2  0
  2  3  1  0
  3  4  2  3
  4  5  1  0
  5  6  1  0
  6  7  1  0
  7  8  1  0
  8  9  2  3
  9 10  1  0
 10 11  2  3
 11 12  1  0
 12  8  1  0
  7 13  2  0
  5 14  2  3
 14 15  1  0
 14 16  1  0
 16 17  2  3
 17  3  1  0
  2 18  1  0
 18 19  1  0
 19 20  2  3
 20 21  1  0
 21 22  1  0
 22 23  1  0
 23 24  1  0
 24 25  2  0
 23 26  2  0
 21 27  2  3
 27 28  1  0
 28 29  1  0
 29 30  1  0
 29 31  1  0
 29 32  1  0
 28 33  2  3
 33 19  1  0
M  END
> <smiles>
O=C(C1=CC(NC(C2=CC=NO2)=O)=C(C)C=C1)NC3=CC(NC(C=C)=O)=CC(C(F)(F)F)=C3

> <facility_reagent_id>
HMSL10076

> <salt_id>
101

> <chemical_name>
QL-XI-92

> <inchi>
InChI=1S/C22H17F3N4O4/c1-3-19(30)27-15-9-14(22(23,24)25)10-16(11-15)28-20(31)13-5-4-12(2)17(8-13)29-21(32)18-6-7-26-33-18/h3-11H,1H2,2H3,(H,27,30)(H,28,31)(H,29,32)

> <inchi_key>

> <chebi_id>

> <lincs_id>

> <pubchem_cid>
n/a

> <chembl_id>
n/a

> <molecular_mass>
458.39

> <molecular_formula>
C22H17F3N4O4

$$$$

  SciTegic08031211342D

 34 39  0  0  0  0            999 V2000
    0.0000    0.0000    0.0000 O   0  0
    0.0000    0.0000    0.0000 C   0  0
    0.0000    0.0000    0.0000 N   0  0
    0.0000    0.0000    0.0000 C   0  0
    0.0000    0.0000    0.0000 C   0  0
    0.0000    0.0000    0.0000 C   0  0
    0.0000    0.0000    0.0000 N   0  0
    0.0000    0.0000    0.0000 C   0  0
    0.0000    0.0000    0.0000 C   0  0
    0.0000    0.0000    0.0000 C   0  0
    0.0000    0.0000    0.0000 O   0  0
    0.0000    0.0000    0.0000 C   0  0
    0.0000    0.0000    0.0000 C   0  0
    0.0000    0.0000    0.0000 C   0  0
    0.0000    0.0000    0.0000 C   0  0
    0.0000    0.0000    0.0000 C   0  0
    0.0000    0.0000    0.0000 C   0  0
    0.0000    0.0000    0.0000 C   0  0
    0.0000    0.0000    0.0000 C   0  0
    0.0000    0.0000    0.0000 C   0  0
    0.0000    0.0000    0.0000 C   0  0
    0.0000    0.0000    0.0000 C   0  0
    0.0000    0.0000    0.0000 C   0  0
    0.0000    0.0000    0.0000 C   0  0
    0.0000    0.0000    0.0000 C   0  0
    0.0000    0.0000    0.0000 N   0  0
    0.0000    0.0000    0.0000 C   0  0
    0.0000    0.0000    0.0000 N   0  0
    0.0000    0.0000    0.0000 C   0  0
    0.0000    0.0000    0.0000 C   0  0
    0.0000    0.0000    0.0000 C   0  0
    0.0000    0.0000    0.0000 C   0  0
    0.0000    0.0000    0.0000 N   0  0
    0.0000    0.0000    0.0000 C   0  0
  1  2  2  0
  2  3  1  0
  3  4  1  0
  4  5  2  3
  5  6  1  0
  6  7  1  0
  7  8  1  0
  8  9  1  0
  9 10  2  0
  8 11  2  0
  7 12  1  0
 12 13  1  0
  6 14  2  3
 14 13  1  0
 14 15  1  0
 15 16  2  3
 16  4  1  0
  2 17  1  0
 17 18  2  3
 18 19  1  0
 19 20  2  3
 20  3  1  0
 20 21  1  0
 21 22  2  3
 22 23  1  0
 23 24  1  0
 24 25  2  3
 25 26  1  0
 26 27  1  0
 26 28  1  0
 28 29  2  3
 29 24  1  0
 23 30  2  3
 30 31  1  0
 31 32  2  3
 32 21  1  0
 32 33  1  0
 33 34  2  3
 34 19  1  0
M  END
> <smiles>
O=C(N3C4=CC(N(C(C=C)=O)CC6)=C6C=C4)C=CC2=C3C1=CC(C5=CN(C)N=C5)=CC=C1N=C2

> <facility_reagent_id>
HMSL10077

> <salt_id>
101

> <chemical_name>
QL-XII-47

> <inchi>
InChI=1S/C27H21N5O2/c1-3-25(33)31-11-10-17-4-7-21(13-24(17)31)32-26(34)9-6-19-14-28-23-8-5-18(12-22(23)27(19)32)20-15-29-30(2)16-20/h3-9,12-16H,1,10-11H2,2H3

> <inchi_key>

> <chebi_id>

> <lincs_id>

> <pubchem_cid>
n/a

> <chembl_id>
n/a

> <molecular_mass>
447.49

> <molecular_formula>
C27H21N5O2

$$$$

  SciTegic08031211342D

 37 40  0  0  0  0            999 V2000
    0.0000    0.0000    0.0000 O   0  0
    0.0000    0.0000    0.0000 C   0  0
    0.0000    0.0000    0.0000 N   0  0
    0.0000    0.0000    0.0000 C   0  0
    0.0000    0.0000    0.0000 C   0  0
    0.0000    0.0000    0.0000 C   0  0
    0.0000    0.0000    0.0000 C   0  0
    0.0000    0.0000    0.0000 C   0  0
    0.0000    0.0000    0.0000 N   0  0
    0.0000    0.0000    0.0000 C   0  0
    0.0000    0.0000    0.0000 N   0  0
    0.0000    0.0000    0.0000 C   0  0
    0.0000    0.0000    0.0000 C   0  0
    0.0000    0.0000    0.0000 C   0  0
    0.0000    0.0000    0.0000 C   0  0
    0.0000    0.0000    0.0000 C   0  0
    0.0000    0.0000    0.0000 N   0  0
    0.0000    0.0000    0.0000 C   0  0
    0.0000    0.0000    0.0000 C   0  0
    0.0000    0.0000    0.0000 C   0  0
    0.0000    0.0000    0.0000 N   0  0
    0.0000    0.0000    0.0000 C   0  0
    0.0000    0.0000    0.0000 C   0  0
    0.0000    0.0000    0.0000 C   0  0
    0.0000    0.0000    0.0000 C   0  0
    0.0000    0.0000    0.0000 N   0  0
    0.0000    0.0000    0.0000 C   0  0
    0.0000    0.0000    0.0000 C   0  0
    0.0000    0.0000    0.0000 C   0  0
    0.0000    0.0000    0.0000 C   0  0
    0.0000    0.0000    0.0000 N   0  0
    0.0000    0.0000    0.0000 C   0  0
    0.0000    0.0000    0.0000 C   0  0
    0.0000    0.0000    0.0000 O   0  0
    0.0000    0.0000    0.0000 C   0  0
    0.0000    0.0000    0.0000 C   0  0
    0.0000    0.0000    0.0000 C   0  0
  1  2  2  0
  2  3  1  0
  3  4  1  0
  4  5  2  3
  5  6  1  0
  6  7  2  3
  7  8  1  0
  8  9  1  0
  9 10  1  0
 10 11  2  3
 11 12  1  0
 12 13  1  0
 13 14  2  3
 14 15  1  0
 15 16  2  3
 16 17  1  0
 17 18  2  3
 18 13  1  0
 12 19  2  3
 19 20  1  0
 20 21  2  3
 21 10  1  0
  8 22  2  3
 22  4  1  0
  2 23  1  0
 23 24  2  3
 24 25  1  0
 25 26  1  0
 26 27  1  0
 27 28  1  0
 28 29  2  3
 29 30  1  0
 30 31  1  0
 31 32  1  0
 31 33  1  0
 27 34  2  0
 25 35  2  3
 35 36  1  0
 36 37  2  3
 37 23  1  0
M  END
> <smiles>
O=C(NC2=CC=CC(NC3=NC(C4=CC=CN=C4)=CC=N3)=C2)C1=CC(NC(/C=C/CN(C)C)=O)=CC=C1

> <facility_reagent_id>
HMSL10078

> <salt_id>
101

> <chemical_name>
THZ-2-98-01

> <inchi>
InChI=1S/C28H27N7O2/c1-35(2)16-6-12-26(36)31-22-9-3-7-20(17-22)27(37)32-23-10-4-11-24(18-23)33-28-30-15-13-25(34-28)21-8-5-14-29-19-21/h3-15,17-19H,16H2,1-2H3,(H,31,36)(H,32,37)(H,30,33,34)/b12-6+

> <inchi_key>

> <chebi_id>

> <lincs_id>

> <pubchem_cid>
n/a

> <chembl_id>
n/a

> <molecular_mass>
493.22

> <molecular_formula>
C28H27N7O2

$$$$

  SciTegic08031211342D

 45 51  0  0  0  0            999 V2000
    0.0000    0.0000    0.0000 O   0  0
    0.0000    0.0000    0.0000 C   0  0
    0.0000    0.0000    0.0000 N   0  0
    0.0000    0.0000    0.0000 C   0  0
    0.0000    0.0000    0.0000 C   0  0
    0.0000    0.0000    0.0000 C   0  0
    0.0000    0.0000    0.0000 C   0  0
    0.0000    0.0000    0.0000 F   0  0
    0.0000    0.0000    0.0000 F   0  0
    0.0000    0.0000    0.0000 F   0  0
    0.0000    0.0000    0.0000 C   0  0
    0.0000    0.0000    0.0000 N   0  0
    0.0000    0.0000    0.0000 C   0  0
    0.0000    0.0000    0.0000 C   0  0
    0.0000    0.0000    0.0000 N   0  0
    0.0000    0.0000    0.0000 C   0  0
    0.0000    0.0000    0.0000 C   0  0
    0.0000    0.0000    0.0000 C   0  0
    0.0000    0.0000    0.0000 O   0  0
    0.0000    0.0000    0.0000 C   0  0
    0.0000    0.0000    0.0000 C   0  0
    0.0000    0.0000    0.0000 C   0  0
    0.0000    0.0000    0.0000 C   0  0
    0.0000    0.0000    0.0000 C   0  0
    0.0000    0.0000    0.0000 C   0  0
    0.0000    0.0000    0.0000 C   0  0
    0.0000    0.0000    0.0000 C   0  0
    0.0000    0.0000    0.0000 C   0  0
    0.0000    0.0000    0.0000 N   0  0
    0.0000    0.0000    0.0000 C   0  0
    0.0000    0.0000    0.0000 C   0  0
    0.0000    0.0000    0.0000 C   0  0
    0.0000    0.0000    0.0000 C   0  0
    0.0000    0.0000    0.0000 C   0  0
    0.0000    0.0000    0.0000 C   0  0
    0.0000    0.0000    0.0000 N   0  0
    0.0000    0.0000    0.0000 C   0  0
    0.0000    0.0000    0.0000 C   0  0
    0.0000    0.0000    0.0000 C   0  0
    0.0000    0.0000    0.0000 C   0  0
    0.0000    0.0000    0.0000 C   0  0
    0.0000    0.0000    0.0000 C   0  0
    0.0000    0.0000    0.0000 C   0  0
    0.0000    0.0000    0.0000 C   0  0
    0.0000    0.0000    0.0000 C   0  0
  1  2  2  0
  2  3  1  0
  3  4  1  0
  4  5  2  3
  5  6  1  0
  6  7  1  0
  7  8  1  0
  7  9  1  0
  7 10  1  0
  6 11  2  3
 11 12  1  0
 12 13  1  0
 13 14  1  0
 14 15  1  0
 15 16  1  0
 16 17  1  0
 17 18  1  0
 16 19  2  0
 15 20  1  0
 20 21  1  0
 21 12  1  0
 11 22  1  0
 22 23  2  3
 23  4  1  0
  3 24  1  0
 24 25  2  3
 25 26  1  0
 26 27  2  3
 27  2  1  0
 25 28  1  0
 28 29  2  3
 29 30  1  0
 30 31  2  3
 31 32  1  0
 32 33  2  3
 33 34  1  0
 34 35  2  3
 35 36  1  0
 36 37  2  3
 37 38  1  0
 38 39  2  3
 39 40  1  0
 40 41  2  3
 37 42  1  0
 42 41  1  0
 42 43  2  3
 43 34  1  0
 33 44  1  0
 44 45  2  3
 45 30  1  0
 45 24  1  0
M  END
> <smiles>
O=C1N(C2=CC(C(F)(F)F)=C(N3CCN(C(CC)=O)CC3)C=C2)C4=C(C=C1)C=NC5=CC=C(C6=CN=C(C=CC=C7)C7=C6)C=C54

> <facility_reagent_id>
HMSL10079

> <salt_id>
101

> <chemical_name>
Torin1

> <inchi>
InChI=1S/C35H28F3N5O2/c1-2-32(44)42-15-13-41(14-16-42)31-11-9-26(19-28(31)35(36,37)38)43-33(45)12-8-24-20-40-30-10-7-22(18-27(30)34(24)43)25-17-23-5-3-4-6-29(23)39-21-25/h3-12,17-21H,2,13-16H2,1H3

> <inchi_key>

> <chebi_id>

> <lincs_id>

> <pubchem_cid>
n/a

> <chembl_id>
n/a

> <molecular_mass>
607.62

> <molecular_formula>
C35H28F3N5O2

$$$$

  SciTegic08031211342D

 32 36  0  0  0  0            999 V2000
    0.0000    0.0000    0.0000 O   0  0
    0.0000    0.0000    0.0000 C   0  0
    0.0000    0.0000    0.0000 N   0  0
    0.0000    0.0000    0.0000 C   0  0
    0.0000    0.0000    0.0000 C   0  0
    0.0000    0.0000    0.0000 C   0  0
    0.0000    0.0000    0.0000 C   0  0
    0.0000    0.0000    0.0000 F   0  0
    0.0000    0.0000    0.0000 F   0  0
    0.0000    0.0000    0.0000 F   0  0
    0.0000    0.0000    0.0000 C   0  0
    0.0000    0.0000    0.0000 C   0  0
    0.0000    0.0000    0.0000 C   0  0
    0.0000    0.0000    0.0000 C   0  0
    0.0000    0.0000    0.0000 C   0  0
    0.0000    0.0000    0.0000 C   0  0
    0.0000    0.0000    0.0000 C   0  0
    0.0000    0.0000    0.0000 C   0  0
    0.0000    0.0000    0.0000 C   0  0
    0.0000    0.0000    0.0000 C   0  0
    0.0000    0.0000    0.0000 C   0  0
    0.0000    0.0000    0.0000 C   0  0
    0.0000    0.0000    0.0000 N   0  0
    0.0000    0.0000    0.0000 C   0  0
    0.0000    0.0000    0.0000 N   0  0
    0.0000    0.0000    0.0000 C   0  0
    0.0000    0.0000    0.0000 C   0  0
    0.0000    0.0000    0.0000 C   0  0
    0.0000    0.0000    0.0000 C   0  0
    0.0000    0.0000    0.0000 C   0  0
    0.0000    0.0000    0.0000 N   0  0
    0.0000    0.0000    0.0000 C   0  0
  1  2  2  0
  2  3  1  0
  3  4  1  0
  4  5  2  3
  5  6  1  0
  6  7  1  0
  7  8  1  0
  7  9  1  0
  7 10  1  0
  6 11  2  3
 11 12  1  0
 12 13  2  3
 13  4  1  0
  2 14  1  0
 14 15  2  3
 15 16  1  0
 16 17  2  3
 17  3  1  0
 17 18  1  0
 18 19  2  3
 19 20  1  0
 20 21  1  0
 21 22  2  3
 22 23  1  0
 23 24  2  3
 24 25  1  0
 24 26  1  0
 26 27  2  3
 27 21  1  0
 20 28  2  3
 28 29  1  0
 29 30  2  3
 30 18  1  0
 30 31  1  0
 31 32  2  3
 32 16  1  0
M  END
> <smiles>
O=C(N3C4=CC(C(F)(F)F)=CC=C4)C=CC2=C3C1=CC(C5=CN=C(N)C=C5)=CC=C1N=C2

> <facility_reagent_id>
HMSL10080

> <salt_id>
101

> <chemical_name>
Torin2

> <inchi>
InChI=1S/C24H15F3N4O/c25-24(26,27)17-2-1-3-18(11-17)31-22(32)9-6-16-13-29-20-7-4-14(10-19(20)23(16)31)15-5-8-21(28)30-12-15/h1-13H,(H2,28,30)

> <inchi_key>

> <chebi_id>

> <lincs_id>

> <pubchem_cid>
n/a

> <chembl_id>
n/a

> <molecular_mass>
432.4

> <molecular_formula>
C24H15F3N4O

$$$$

  SciTegic08031211342D

 38 42  0  0  1  0            999 V2000
    0.0000    0.0000    0.0000 O   0  0
    0.0000    0.0000    0.0000 C   0  0
    0.0000    0.0000    0.0000 N   0  0
    0.0000    0.0000    0.0000 N   0  0
    0.0000    0.0000    0.0000 C   0  0
    0.0000    0.0000    0.0000 C   0  0
    0.0000    0.0000    0.0000 C   0  0
    0.0000    0.0000    0.0000 C   0  0
    0.0000    0.0000    0.0000 C   0  0
    0.0000    0.0000    0.0000 O   0  0
    0.0000    0.0000    0.0000 C   0  0
    0.0000    0.0000    0.0000 C   0  0  2  0  0  0
    0.0000    0.0000    0.0000 N   0  0
    0.0000    0.0000    0.0000 C   0  0
    0.0000    0.0000    0.0000 C   0  0
    0.0000    0.0000    0.0000 C   0  0
    0.0000    0.0000    0.0000 C   0  0
    0.0000    0.0000    0.0000 C   0  0
    0.0000    0.0000    0.0000 N   0  0
    0.0000    0.0000    0.0000 C   0  0
    0.0000    0.0000    0.0000 C   0  0
    0.0000    0.0000    0.0000 C   0  0
    0.0000    0.0000    0.0000 C   0  0
    0.0000    0.0000    0.0000 C   0  0
    0.0000    0.0000    0.0000 F   0  0
    0.0000    0.0000    0.0000 C   0  0
    0.0000    0.0000    0.0000 F   0  0
    0.0000    0.0000    0.0000 C   0  0
    0.0000    0.0000    0.0000 C   0  0
    0.0000    0.0000    0.0000 O   0  0
    0.0000    0.0000    0.0000 O   0  0
    0.0000    0.0000    0.0000 C   0  0
    0.0000    0.0000    0.0000 C   0  0
    0.0000    0.0000    0.0000 C   0  0
    0.0000    0.0000    0.0000 C   0  0
    0.0000    0.0000    0.0000 C   0  0
    0.0000    0.0000    0.0000 C   0  0
    0.0000    0.0000    0.0000 C   0  0
  1  2  2  0
  2  3  1  0
  2  4  1  0
  4  5  1  0
  5  6  2  3
  6  3  1  0
  6  7  1  0
  7  8  2  3
  8  9  1  0
  9 10  1  0
 10 11  1  0
 12 11  1  1
 12 13  1  0
 13 14  1  0
 14 15  1  0
 15 16  2  3
 16 17  1  0
 17 18  2  3
 18 19  1  0
 19 20  1  0
 20 21  1  0
 21 22  2  3
 22 23  1  0
 23 24  2  3
 24 25  1  0
 24 26  1  0
 26 27  1  0
 26 28  2  3
 28 21  1  0
 19 29  1  0
 29 15  1  0
 29 30  2  0
 14 31  2  0
 12 32  1  0
 32 33  2  3
 33 34  1  0
 34 35  2  3
 35 36  1  0
 36 37  2  3
 37 32  1  0
  9 38  2  3
 38  5  1  0
M  END
> <smiles>
O=C(N1)NC2=C1C=CC(OC[C@H](NC(C3=CC=CN(CC4=CC=C(F)C(F)=C4)C3=O)=O)C5=CC=CC=C5)=C2

> <facility_reagent_id>
HMSL10081

> <salt_id>
101

> <chemical_name>
KIN001-244

> <inchi>
InChI=1S/C28H22F2N4O4/c29-21-10-8-17(13-22(21)30)15-34-12-4-7-20(27(34)36)26(35)31-25(18-5-2-1-3-6-18)16-38-19-9-11-23-24(14-19)33-28(37)32-23/h1-14,25H,15-16H2,(H,31,35)(H2,32,33,37)/t25-/m0/s1

> <inchi_key>

> <chebi_id>

> <lincs_id>

> <pubchem_cid>
n/a

> <chembl_id>
n/a

> <molecular_mass>
516.16

> <molecular_formula>
C28H22F2N4O4

$$$$

  SciTegic08031211342D

 48 52  0  0  0  0            999 V2000
    0.0000    0.0000    0.0000 O   0  0
    0.0000    0.0000    0.0000 C   0  0
    0.0000    0.0000    0.0000 N   0  0
    0.0000    0.0000    0.0000 C   0  0
    0.0000    0.0000    0.0000 C   0  0
    0.0000    0.0000    0.0000 Cl  0  0
    0.0000    0.0000    0.0000 C   0  0
    0.0000    0.0000    0.0000 O   0  0
    0.0000    0.0000    0.0000 C   0  0
    0.0000    0.0000    0.0000 C   0  0
    0.0000    0.0000    0.0000 C   0  0
    0.0000    0.0000    0.0000 O   0  0
    0.0000    0.0000    0.0000 C   0  0
    0.0000    0.0000    0.0000 C   0  0
    0.0000    0.0000    0.0000 Cl  0  0
    0.0000    0.0000    0.0000 N   0  0
    0.0000    0.0000    0.0000 C   0  0
    0.0000    0.0000    0.0000 C   0  0
    0.0000    0.0000    0.0000 C   0  0
    0.0000    0.0000    0.0000 C   0  0
    0.0000    0.0000    0.0000 C   0  0
    0.0000    0.0000    0.0000 N   0  0
    0.0000    0.0000    0.0000 C   0  0
    0.0000    0.0000    0.0000 C   0  0
    0.0000    0.0000    0.0000 C   0  0
    0.0000    0.0000    0.0000 O   0  0
    0.0000    0.0000    0.0000 C   0  0
    0.0000    0.0000    0.0000 C   0  0
    0.0000    0.0000    0.0000 C   0  0
    0.0000    0.0000    0.0000 C   0  0
    0.0000    0.0000    0.0000 C   0  0
    0.0000    0.0000    0.0000 N   0  0
    0.0000    0.0000    0.0000 C   0  0
    0.0000    0.0000    0.0000 C   0  0
    0.0000    0.0000    0.0000 C   0  0
    0.0000    0.0000    0.0000 C   0  0
    0.0000    0.0000    0.0000 N   0  0
    0.0000    0.0000    0.0000 C   0  0
    0.0000    0.0000    0.0000 C   0  0
    0.0000    0.0000    0.0000 N   0  0
    0.0000    0.0000    0.0000 C   0  0
    0.0000    0.0000    0.0000 C   0  0
    0.0000    0.0000    0.0000 C   0  0
    0.0000    0.0000    0.0000 C   0  0
    0.0000    0.0000    0.0000 C   0  0
    0.0000    0.0000    0.0000 N   0  0
    0.0000    0.0000    0.0000 C   0  0
    0.0000    0.0000    0.0000 N   0  0
  1  2  2  0
  2  3  1  0
  3  4  1  0
  4  5  2  3
  5  6  1  0
  5  7  1  0
  7  8  1  0
  8  9  1  0
  7 10  2  3
 10 11  1  0
 11 12  1  0
 12 13  1  0
 11 14  2  3
 14  4  1  0
 14 15  1  0
  2 16  1  0
 16 17  1  0
 17 18  1  0
 18 19  2  3
 19 20  1  0
 20 21  2  3
 21 22  1  0
 22 23  1  0
 23 24  1  0
 24 25  2  0
 23 26  2  0
 21 27  1  0
 27 28  2  3
 28 18  1  0
 16 29  1  0
 29 30  2  3
 30 31  1  0
 31 32  1  0
 32 33  1  0
 33 34  2  3
 34 35  1  0
 35 36  2  3
 36 37  1  0
 37 38  1  0
 38 39  1  0
 39 40  1  0
 40 41  1  0
 40 42  1  0
 42 43  1  0
 43 37  1  0
 36 44  1  0
 44 45  2  3
 45 33  1  0
 31 46  2  3
 46 47  1  0
 47 48  2  3
 48 29  1  0
M  END
> <smiles>
O=C(NC1=C(Cl)C(OC)=CC(OC)=C1Cl)N(CC2=CC=C(NC(C=C)=O)C=C2)C3=CC(NC4=CC=C(N5CCN(C)CC5)C=C4)=NC=N3

> <facility_reagent_id>
HMSL10082

> <salt_id>
101

> <chemical_name>
WZ-4-145

> <inchi>
InChI=1S/C34H36Cl2N8O4/c1-5-30(45)40-24-8-6-22(7-9-24)20-44(34(46)41-33-31(35)26(47-3)18-27(48-4)32(33)36)29-19-28(37-21-38-29)39-23-10-12-25(13-11-23)43-16-14-42(2)15-17-43/h5-13,18-19,21H,1,14-17,20
H2,2-4H3,(H,40,45)(H,41,46)(H,37,38,39)

> <inchi_key>

> <chebi_id>

> <lincs_id>

> <pubchem_cid>
n/a

> <chembl_id>
n/a

> <molecular_mass>
691.61

> <molecular_formula>
C34H36Cl2N8O4

$$$$

  SciTegic08031211342D

 34 36  0  0  0  0            999 V2000
    0.0000    0.0000    0.0000 C   0  0
    0.0000    0.0000    0.0000 N   0  0
    0.0000    0.0000    0.0000 C   0  0
    0.0000    0.0000    0.0000 N   0  0
    0.0000    0.0000    0.0000 C   0  0
    0.0000    0.0000    0.0000 N   0  0
    0.0000    0.0000    0.0000 C   0  0
    0.0000    0.0000    0.0000 C   0  0
    0.0000    0.0000    0.0000 C   0  0
    0.0000    0.0000    0.0000 C   0  0
    0.0000    0.0000    0.0000 N   0  0
    0.0000    0.0000    0.0000 C   0  0
    0.0000    0.0000    0.0000 C   0  0
    0.0000    0.0000    0.0000 C   0  0
    0.0000    0.0000    0.0000 C   0  0
    0.0000    0.0000    0.0000 N   0  0
    0.0000    0.0000    0.0000 C   0  0
    0.0000    0.0000    0.0000 C   0  0
    0.0000    0.0000    0.0000 C   0  0
    0.0000    0.0000    0.0000 N   0  0
    0.0000    0.0000    0.0000 C   0  0
    0.0000    0.0000    0.0000 C   0  0
    0.0000    0.0000    0.0000 Cl  0  0
    0.0000    0.0000    0.0000 C   0  0
    0.0000    0.0000    0.0000 O   0  0
    0.0000    0.0000    0.0000 C   0  0
    0.0000    0.0000    0.0000 C   0  0
    0.0000    0.0000    0.0000 C   0  0
    0.0000    0.0000    0.0000 O   0  0
    0.0000    0.0000    0.0000 C   0  0
    0.0000    0.0000    0.0000 C   0  0
    0.0000    0.0000    0.0000 Cl  0  0
    0.0000    0.0000    0.0000 C   0  0
    0.0000    0.0000    0.0000 O   0  0
  1  2  1  0
  2  3  1  0
  3  4  2  3
  4  5  1  0
  5  6  1  0
  6  7  1  0
  7  8  1  0
  8  9  1  0
  9 10  1  0
 10 11  1  0
 11 12  1  0
 12 13  1  0
 11 14  1  0
 14 15  1  0
  5 16  2  3
 16 17  1  0
 17 18  2  3
 18  3  1  0
 18 19  1  0
 19 20  1  0
 20 21  1  0
 21 22  2  3
 22 23  1  0
 22 24  1  0
 24 25  1  0
 25 26  1  0
 24 27  2  3
 27 28  1  0
 28 29  1  0
 29 30  1  0
 28 31  2  3
 31 21  1  0
 31 32  1  0
 20 33  1  0
 33  2  1  0
 33 34  2  0
M  END
> <smiles>
CN1C2=NC(NCCCCN(CC)CC)=NC=C2CN(C3=C(Cl)C(OC)=CC(OC)=C3Cl)C1=O

> <facility_reagent_id>
HMSL10083

> <salt_id>
101

> <chemical_name>
WZ-7043

> <inchi>
InChI=1S/C23H32Cl2N6O3/c1-6-30(7-2)11-9-8-10-26-22-27-13-15-14-31(23(32)29(3)21(15)28-22)20-18(24)16(33-4)12-17(34-5)19(20)25/h12-13H,6-11,14H2,1-5H3,(H,26,27,28)

> <inchi_key>

> <chebi_id>

> <lincs_id>

> <pubchem_cid>
n/a

> <chembl_id>
n/a

> <molecular_mass>
511.44

> <molecular_formula>
C23H32Cl2N6O3

$$$$

  SciTegic08031211342D

 34 37  0  0  1  0            999 V2000
    0.0000    0.0000    0.0000 C   0  0
    0.0000    0.0000    0.0000 C   0  0
    0.0000    0.0000    0.0000 C   0  0
    0.0000    0.0000    0.0000 N   0  0
    0.0000    0.0000    0.0000 C   0  0
    0.0000    0.0000    0.0000 N   0  0
    0.0000    0.0000    0.0000 C   0  0
    0.0000    0.0000    0.0000 N   0  0
    0.0000    0.0000    0.0000 C   0  0  2  0  0  0
    0.0000    0.0000    0.0000 C   0  0
    0.0000    0.0000    0.0000 C   0  0
    0.0000    0.0000    0.0000 C   0  0  1  0  0  0
    0.0000    0.0000    0.0000 N   0  0
    0.0000    0.0000    0.0000 C   0  0
    0.0000    0.0000    0.0000 C   0  0
    0.0000    0.0000    0.0000 C   0  0
    0.0000    0.0000    0.0000 C   0  0
    0.0000    0.0000    0.0000 N   0  0
    0.0000    0.0000    0.0000 C   0  0
    0.0000    0.0000    0.0000 N   0  0
    0.0000    0.0000    0.0000 C   0  0
    0.0000    0.0000    0.0000 C   0  0
    0.0000    0.0000    0.0000 C   0  0
    0.0000    0.0000    0.0000 C   0  0
    0.0000    0.0000    0.0000 C   0  0
    0.0000    0.0000    0.0000 N   0  0
    0.0000    0.0000    0.0000 C   0  0
    0.0000    0.0000    0.0000 C   0  0
    0.0000    0.0000    0.0000 C   0  0
    0.0000    0.0000    0.0000 O   0  0
    0.0000    0.0000    0.0000 C   0  0
    0.0000    0.0000    0.0000 C   0  0
    0.0000    0.0000    0.0000 N   0  0
    0.0000    0.0000    0.0000 C   0  0
  1  2  1  0
  2  3  1  0
  2  4  1  0
  4  5  1  0
  5  6  2  3
  6  7  1  0
  7  8  1  0
  9  8  1  1
  9 10  1  0
 10 11  1  0
 11 12  1  0
 12 13  1  1
 13 14  1  0
 13 15  1  0
 12 16  1  0
 16 17  1  0
 17  9  1  0
  7 18  2  3
 18 19  1  0
 19 20  1  0
 20 21  1  0
 21 22  2  3
 22 23  1  0
 23 24  2  3
 24 25  1  0
 25 26  1  0
 26 27  1  0
 27 28  1  0
 28 29  2  0
 27 30  2  0
 25 31  2  3
 31 21  1  0
 19 32  2  3
 32  5  1  0
 32 33  1  0
 33 34  2  3
 34  4  1  0
M  END
> <smiles>
CC(C)N1C2=NC(N[C@@H]3CC[C@@H](N(C)C)CC3)=NC(NC4=CC=CC(NC(C=C)=O)=C4)=C2N=C1

> <facility_reagent_id>
HMSL10084

> <salt_id>
101

> <chemical_name>
WZ3105

> <inchi>
InChI=1S/C25H34N8O/c1-6-21(34)27-18-8-7-9-19(14-18)28-23-22-24(33(15-26-22)16(2)3)31-25(30-23)29-17-10-12-20(13-11-17)32(4)5/h6-9,14-17,20H,1,10-13H2,2-5H3,(H,27,34)(H2,28,29,30,31)/t17-,20-

> <inchi_key>

> <chebi_id>

> <lincs_id>

> <pubchem_cid>
n/a

> <chembl_id>
n/a

> <molecular_mass>
462.59

> <molecular_formula>
C25H34N8O

$$$$

  SciTegic08031211342D

 35 38  0  0  0  0            999 V2000
    0.0000    0.0000    0.0000 Cl  0  0
    0.0000    0.0000    0.0000 C   0  0
    0.0000    0.0000    0.0000 C   0  0
    0.0000    0.0000    0.0000 O   0  0
    0.0000    0.0000    0.0000 C   0  0
    0.0000    0.0000    0.0000 C   0  0
    0.0000    0.0000    0.0000 C   0  0
    0.0000    0.0000    0.0000 N   0  0
    0.0000    0.0000    0.0000 C   0  0
    0.0000    0.0000    0.0000 C   0  0
    0.0000    0.0000    0.0000 C   0  0
    0.0000    0.0000    0.0000 O   0  0
    0.0000    0.0000    0.0000 C   0  0
    0.0000    0.0000    0.0000 C   0  0
    0.0000    0.0000    0.0000 C   0  0
    0.0000    0.0000    0.0000 N   0  0
    0.0000    0.0000    0.0000 C   0  0
    0.0000    0.0000    0.0000 N   0  0
    0.0000    0.0000    0.0000 C   0  0
    0.0000    0.0000    0.0000 C   0  0
    0.0000    0.0000    0.0000 C   0  0
    0.0000    0.0000    0.0000 C   0  0
    0.0000    0.0000    0.0000 N   0  0
    0.0000    0.0000    0.0000 C   0  0
    0.0000    0.0000    0.0000 C   0  0
    0.0000    0.0000    0.0000 N   0  0
    0.0000    0.0000    0.0000 C   0  0
    0.0000    0.0000    0.0000 C   0  0
    0.0000    0.0000    0.0000 C   0  0
    0.0000    0.0000    0.0000 C   0  0
    0.0000    0.0000    0.0000 C   0  0
    0.0000    0.0000    0.0000 O   0  0
    0.0000    0.0000    0.0000 C   0  0
    0.0000    0.0000    0.0000 N   0  0
    0.0000    0.0000    0.0000 C   0  0
  1  2  1  0
  2  3  2  3
  3  4  1  0
  4  5  1  0
  5  6  2  3
  6  7  1  0
  7  8  1  0
  8  9  1  0
  9 10  1  0
 10 11  2  0
  9 12  2  0
  7 13  2  3
 13 14  1  0
 14 15  2  3
 15  5  1  0
  3 16  1  0
 16 17  2  3
 17 18  1  0
 18 19  1  0
 19 20  2  3
 20 21  1  0
 21 22  2  3
 22 23  1  0
 23 24  1  0
 24 25  1  0
 25 26  1  0
 26 27  1  0
 26 28  1  0
 28 29  1  0
 29 23  1  0
 22 30  1  0
 30 31  2  3
 31 19  1  0
 31 32  1  0
 32 33  1  0
 17 34  1  0
 34 35  2  3
 35  2  1  0
M  END
> <smiles>
ClC1=C(OC4=CC(NC(C=C)=O)=CC=C4)N=C(NC2=CC=C(N3CCN(C)CC3)C=C2OC)N=C1

> <facility_reagent_id>
HMSL10085

> <salt_id>
101

> <chemical_name>
WZ4002

> <inchi>
InChI=1S/C25H27ClN6O3/c1-4-23(33)28-17-6-5-7-19(14-17)35-24-20(26)16-27-25(30-24)29-21-9-8-18(15-22(21)34-3)32-12-10-31(2)11-13-32/h4-9,14-16H,1,10-13H2,2-3H3,(H,28,33)(H,27,29,30)

> <inchi_key>

> <chebi_id>

> <lincs_id>

> <pubchem_cid>
44607530

> <chembl_id>
n/a

> <molecular_mass>
494.97

> <molecular_formula>
C25H27ClN6O3

$$$$

  SciTegic08031211342D

 42 47  0  0  0  0            999 V2000
    0.0000    0.0000    0.0000 O   0  0
    0.0000    0.0000    0.0000 C   0  0
    0.0000    0.0000    0.0000 C   0  0
    0.0000    0.0000    0.0000 C   0  0
    0.0000    0.0000    0.0000 C   0  0
    0.0000    0.0000    0.0000 C   0  0
    0.0000    0.0000    0.0000 C   0  0
    0.0000    0.0000    0.0000 C   0  0
    0.0000    0.0000    0.0000 N   0  0
    0.0000    0.0000    0.0000 C   0  0
    0.0000    0.0000    0.0000 C   0  0
    0.0000    0.0000    0.0000 N   0  0
    0.0000    0.0000    0.0000 C   0  0
    0.0000    0.0000    0.0000 N   0  0
    0.0000    0.0000    0.0000 C   0  0
    0.0000    0.0000    0.0000 C   0  0
    0.0000    0.0000    0.0000 O   0  0
    0.0000    0.0000    0.0000 C   0  0
    0.0000    0.0000    0.0000 C   0  0
    0.0000    0.0000    0.0000 C   0  0
    0.0000    0.0000    0.0000 C   0  0
    0.0000    0.0000    0.0000 N   0  0
    0.0000    0.0000    0.0000 C   0  0
    0.0000    0.0000    0.0000 C   0  0
    0.0000    0.0000    0.0000 C   0  0
    0.0000    0.0000    0.0000 N   0  0
    0.0000    0.0000    0.0000 C   0  0
    0.0000    0.0000    0.0000 C   0  0
    0.0000    0.0000    0.0000 N   0  0
    0.0000    0.0000    0.0000 C   0  0
    0.0000    0.0000    0.0000 C   0  0
    0.0000    0.0000    0.0000 C   0  0
    0.0000    0.0000    0.0000 C   0  0
    0.0000    0.0000    0.0000 C   0  0
    0.0000    0.0000    0.0000 O   0  0
    0.0000    0.0000    0.0000 C   0  0
    0.0000    0.0000    0.0000 C   0  0
    0.0000    0.0000    0.0000 N   0  0
    0.0000    0.0000    0.0000 C   0  0
    0.0000    0.0000    0.0000 C   0  0
    0.0000    0.0000    0.0000 N   0  0
    0.0000    0.0000    0.0000 C   0  0
  1  2  2  0
  2  3  1  0
  3  4  2  3
  4  5  1  0
  5  6  2  3
  6  7  1  0
  7  8  2  3
  8  3  1  0
  4  9  1  0
  9 10  1  0
  9 11  1  0
 11 12  2  3
 12 13  1  0
 13 14  1  0
 14 15  1  0
 15 16  2  3
 16 17  1  0
 17 18  1  0
 16 19  1  0
 19 20  2  3
 20 21  1  0
 21 22  1  0
 22 23  1  0
 23 24  1  0
 24 25  1  0
 25 26  1  0
 26 27  1  0
 27 28  1  0
 28 29  1  0
 29 30  1  0
 29 31  1  0
 31 32  1  0
 32 26  1  0
 25 33  1  0
 33 34  1  0
 34 22  1  0
 21 35  2  0
 20 36  1  0
 36 37  2  3
 37 15  1  0
 13 38  2  3
 38 39  1  0
 39 40  2  3
 40 11  1  0
 40 41  1  0
 41  2  1  0
 41 42  1  0
M  END
> <smiles>
O=C1C2=C(C=CC=C2)N(C)C3=NC(NC4=C(OC)C=C(C(N5CCC(N6CCN(C)CC6)CC5)=O)C=C4)=NC=C3N1C

> <facility_reagent_id>
HMSL10086

> <salt_id>
101

> <chemical_name>
XMD11-50; LRRK2-in-1

> <inchi>
InChI=1S/C31H38N8O3/c1-35-15-17-38(18-16-35)22-11-13-39(14-12-22)29(40)21-9-10-24(27(19-21)42-4)33-31-32-20-26-28(34-31)36(2)25-8-6-5-7-23(25)30(41)37(26)3/h5-10,19-20,22H,11-18H2,1-4H3,(H,32,33,34)

> <inchi_key>

> <chebi_id>

> <lincs_id>

> <pubchem_cid>
n/a

> <chembl_id>
n/a

> <molecular_mass>
570.69

> <molecular_formula>
C31H38N8O3

$$$$

  SciTegic08031211342D

 39 43  0  0  0  0            999 V2000
    0.0000    0.0000    0.0000 O   0  0
    0.0000    0.0000    0.0000 C   0  0
    0.0000    0.0000    0.0000 C   0  0
    0.0000    0.0000    0.0000 C   0  0
    0.0000    0.0000    0.0000 N   0  0
    0.0000    0.0000    0.0000 C   0  0
    0.0000    0.0000    0.0000 C   0  0
    0.0000    0.0000    0.0000 C   0  0
    0.0000    0.0000    0.0000 C   0  0
    0.0000    0.0000    0.0000 C   0  0
    0.0000    0.0000    0.0000 C   0  0
    0.0000    0.0000    0.0000 N   0  0
    0.0000    0.0000    0.0000 C   0  0
    0.0000    0.0000    0.0000 N   0  0
    0.0000    0.0000    0.0000 C   0  0
    0.0000    0.0000    0.0000 C   0  0
    0.0000    0.0000    0.0000 C   0  0
    0.0000    0.0000    0.0000 C   0  0
    0.0000    0.0000    0.0000 C   0  0
    0.0000    0.0000    0.0000 N   0  0
    0.0000    0.0000    0.0000 C   0  0
    0.0000    0.0000    0.0000 C   0  0
    0.0000    0.0000    0.0000 C   0  0
    0.0000    0.0000    0.0000 N   0  0
    0.0000    0.0000    0.0000 C   0  0
    0.0000    0.0000    0.0000 C   0  0
    0.0000    0.0000    0.0000 C   0  0
    0.0000    0.0000    0.0000 O   0  0
    0.0000    0.0000    0.0000 C   0  0
    0.0000    0.0000    0.0000 C   0  0
    0.0000    0.0000    0.0000 O   0  0
    0.0000    0.0000    0.0000 C   0  0
    0.0000    0.0000    0.0000 N   0  0
    0.0000    0.0000    0.0000 C   0  0
    0.0000    0.0000    0.0000 C   0  0
    0.0000    0.0000    0.0000 N   0  0
    0.0000    0.0000    0.0000 C   0  0
    0.0000    0.0000    0.0000 C   0  0
    0.0000    0.0000    0.0000 C   0  0
  1  2  2  0
  2  3  1  0
  3  4  1  0
  4  5  1  0
  5  6  1  0
  6  7  1  0
  7  8  1  0
  8  9  1  0
  9 10  1  0
 10  6  1  0
  5 11  1  0
 11 12  2  3
 12 13  1  0
 13 14  1  0
 14 15  1  0
 15 16  2  3
 16 17  1  0
 17 18  2  3
 18 19  1  0
 19 20  1  0
 20 21  1  0
 21 22  1  0
 22 23  1  0
 23 24  1  0
 24 25  1  0
 24 26  1  0
 26 27  1  0
 27 21  1  0
 19 28  2  0
 18 29  1  0
 29 30  2  3
 30 15  1  0
 30 31  1  0
 31 32  1  0
 13 33  2  3
 33 34  1  0
 34 35  2  3
 35 11  1  0
 35 36  1  0
 36  2  1  0
 36 37  1  0
 37 38  1  0
 37 39  1  0
M  END
> <smiles>
O=C1CCN(C2CCCC2)C3=NC(NC4=CC=C(C(NC5CCN(C)CC5)=O)C=C4OC)=NC=C3N1C(C)C

> <facility_reagent_id>
HMSL10087

> <salt_id>
101

> <chemical_name>
XMD11-85h

> <inchi>
InChI=1S/C29H41N7O3/c1-19(2)36-24-18-30-29(33-27(24)35(16-13-26(36)37)22-7-5-6-8-22)32-23-10-9-20(17-25(23)39-4)28(38)31-21-11-14-34(3)15-12-21/h9-10,17-19,21-22H,5-8,11-16H2,1-4H3,(H,31,38)(H,30,32,3
3)

> <inchi_key>

> <chebi_id>

> <lincs_id>

> <pubchem_cid>
n/a

> <chembl_id>
n/a

> <molecular_mass>
535.68

> <molecular_formula>
C29H41N7O3

$$$$

  SciTegic08031211342D

 27 31  0  0  0  0            999 V2000
    0.0000    0.0000    0.0000 O   0  0
    0.0000    0.0000    0.0000 C   0  0
    0.0000    0.0000    0.0000 C   0  0
    0.0000    0.0000    0.0000 C   0  0
    0.0000    0.0000    0.0000 C   0  0
    0.0000    0.0000    0.0000 N   0  0
    0.0000    0.0000    0.0000 C   0  0
    0.0000    0.0000    0.0000 N   0  0
    0.0000    0.0000    0.0000 N   0  0
    0.0000    0.0000    0.0000 C   0  0
    0.0000    0.0000    0.0000 C   0  0
    0.0000    0.0000    0.0000 C   0  0
    0.0000    0.0000    0.0000 C   0  0
    0.0000    0.0000    0.0000 C   0  0
    0.0000    0.0000    0.0000 C   0  0
    0.0000    0.0000    0.0000 C   0  0
    0.0000    0.0000    0.0000 N   0  0
    0.0000    0.0000    0.0000 C   0  0
    0.0000    0.0000    0.0000 C   0  0
    0.0000    0.0000    0.0000 C   0  0
    0.0000    0.0000    0.0000 O   0  0
    0.0000    0.0000    0.0000 C   0  0
    0.0000    0.0000    0.0000 C   0  0
    0.0000    0.0000    0.0000 C   0  0
    0.0000    0.0000    0.0000 C   0  0
    0.0000    0.0000    0.0000 C   0  0
    0.0000    0.0000    0.0000 C   0  0
  1  2  2  0
  2  3  1  0
  3  4  1  0
  4  5  1  0
  5  3  1  0
  2  6  1  0
  6  7  1  0
  7  8  2  3
  8  9  1  0
  9 10  1  0
 10 11  2  3
 11 12  1  0
 12 13  1  0
 13 14  2  3
 14 15  1  0
 15 16  1  0
 16 17  1  0
 17 18  1  0
 18 19  1  0
 19 20  1  0
 20 18  1  0
 16 21  2  0
 15 22  2  3
 22 23  1  0
 23 24  2  3
 24 13  1  0
 12 25  2  3
 25 26  1  0
 26 27  2  3
 27 10  1  0
 27  7  1  0
M  END
> <smiles>
O=C(C1CC1)NC2=NNC3=CC(C4=CC(C(NC5CC5)=O)=CC=C4)=CC=C32

> <facility_reagent_id>
HMSL10088

> <salt_id>
101

> <chemical_name>
XMD13-2

> <inchi>
InChI=1S/C21H20N4O2/c26-20(12-4-5-12)23-19-17-9-6-14(11-18(17)24-25-19)13-2-1-3-15(10-13)21(27)22-16-7-8-16/h1-3,6,9-12,16H,4-5,7-8H2,(H,22,27)(H2,23,24,25,26)

> <inchi_key>

> <chebi_id>

> <lincs_id>

> <pubchem_cid>
n/a

> <chembl_id>
n/a

> <molecular_mass>
360.41

> <molecular_formula>
C21H20N4O2

$$$$

  SciTegic08031211342D

 32 35  0  0  0  0            999 V2000
    0.0000    0.0000    0.0000 N   0  0
    0.0000    0.0000    0.0000 C   0  0
    0.0000    0.0000    0.0000 C   0  0
    0.0000    0.0000    0.0000 C   0  0
    0.0000    0.0000    0.0000 C   0  0
    0.0000    0.0000    0.0000 C   0  0
    0.0000    0.0000    0.0000 Cl  0  0
    0.0000    0.0000    0.0000 C   0  0
    0.0000    0.0000    0.0000 C   0  0
    0.0000    0.0000    0.0000 C   0  0
    0.0000    0.0000    0.0000 C   0  0
    0.0000    0.0000    0.0000 Cl  0  0
    0.0000    0.0000    0.0000 O   0  0
    0.0000    0.0000    0.0000 S   0  0
    0.0000    0.0000    0.0000 C   0  0
    0.0000    0.0000    0.0000 N   0  0
    0.0000    0.0000    0.0000 C   0  0
    0.0000    0.0000    0.0000 C   0  0
    0.0000    0.0000    0.0000 O   0  0
    0.0000    0.0000    0.0000 C   0  0
    0.0000    0.0000    0.0000 C   0  0
    0.0000    0.0000    0.0000 C   0  0
    0.0000    0.0000    0.0000 N   0  0
    0.0000    0.0000    0.0000 C   0  0
    0.0000    0.0000    0.0000 C   0  0
    0.0000    0.0000    0.0000 N   0  0
    0.0000    0.0000    0.0000 C   0  0
    0.0000    0.0000    0.0000 C   0  0
    0.0000    0.0000    0.0000 C   0  0
    0.0000    0.0000    0.0000 C   0  0
    0.0000    0.0000    0.0000 C   0  0
    0.0000    0.0000    0.0000 N   0  0
  1  2  1  0
  2  3  2  3
  3  4  1  0
  4  5  1  0
  5  6  2  3
  6  7  1  0
  6  8  1  0
  8  9  2  3
  9 10  1  0
 10 11  2  3
 11  5  1  0
 11 12  1  0
  4 13  2  0
  3 14  1  0
 14 15  1  0
 15 16  1  0
 16 17  1  0
 17 18  2  3
 18 19  1  0
 19 20  1  0
 18 21  1  0
 21 22  2  3
 22 23  1  0
 23 24  1  0
 24 25  1  0
 25 26  1  0
 26 27  1  0
 26 28  1  0
 28 29  1  0
 29 23  1  0
 22 30  1  0
 30 31  2  3
 31 17  1  0
 15 32  2  3
 32  2  1  0
M  END
> <smiles>
NC1=C(C(C2=C(Cl)C=CC=C2Cl)=O)SC(NC3=C(OC)C=C(N4CCN(C)CC4)C=C3)=N1

> <facility_reagent_id>
HMSL10089

> <salt_id>
101

> <chemical_name>
XMD14-99

> <inchi>
InChI=1S/C22H23Cl2N5O2S/c1-28-8-10-29(11-9-28)13-6-7-16(17(12-13)31-2)26-22-27-21(25)20(32-22)19(30)18-14(23)4-3-5-15(18)24/h3-7,12H,8-11,25H2,1-2H3,(H,26,27)

> <inchi_key>

> <chebi_id>

> <lincs_id>

> <pubchem_cid>
n/a

> <chembl_id>
n/a

> <molecular_mass>
492.42

> <molecular_formula>
C22H23Cl2N5O2S

$$$$

  SciTegic08031211342D

 35 38  0  0  0  0            999 V2000
    0.0000    0.0000    0.0000 N   0  0
    0.0000    0.0000    0.0000 C   0  0
    0.0000    0.0000    0.0000 C   0  0
    0.0000    0.0000    0.0000 C   0  0
    0.0000    0.0000    0.0000 C   0  0
    0.0000    0.0000    0.0000 C   0  0
    0.0000    0.0000    0.0000 C   0  0
    0.0000    0.0000    0.0000 C   0  0
    0.0000    0.0000    0.0000 N   0  0
    0.0000    0.0000    0.0000 C   0  0
    0.0000    0.0000    0.0000 C   0  0
    0.0000    0.0000    0.0000 C   0  0
    0.0000    0.0000    0.0000 O   0  0
    0.0000    0.0000    0.0000 C   0  0
    0.0000    0.0000    0.0000 C   0  0
    0.0000    0.0000    0.0000 O   0  0
    0.0000    0.0000    0.0000 S   0  0
    0.0000    0.0000    0.0000 C   0  0
    0.0000    0.0000    0.0000 N   0  0
    0.0000    0.0000    0.0000 C   0  0
    0.0000    0.0000    0.0000 C   0  0
    0.0000    0.0000    0.0000 O   0  0
    0.0000    0.0000    0.0000 C   0  0
    0.0000    0.0000    0.0000 C   0  0
    0.0000    0.0000    0.0000 C   0  0
    0.0000    0.0000    0.0000 N   0  0
    0.0000    0.0000    0.0000 C   0  0
    0.0000    0.0000    0.0000 C   0  0
    0.0000    0.0000    0.0000 N   0  0
    0.0000    0.0000    0.0000 C   0  0
    0.0000    0.0000    0.0000 C   0  0
    0.0000    0.0000    0.0000 C   0  0
    0.0000    0.0000    0.0000 C   0  0
    0.0000    0.0000    0.0000 C   0  0
    0.0000    0.0000    0.0000 N   0  0
  1  2  1  0
  2  3  2  3
  3  4  1  0
  4  5  1  0
  5  6  2  3
  6  7  1  0
  7  8  2  3
  8  9  1  0
  9 10  1  0
 10 11  1  0
 11 12  2  0
 10 13  2  0
  8 14  1  0
 14 15  2  3
 15  5  1  0
  4 16  2  0
  3 17  1  0
 17 18  1  0
 18 19  1  0
 19 20  1  0
 20 21  2  3
 21 22  1  0
 22 23  1  0
 21 24  1  0
 24 25  2  3
 25 26  1  0
 26 27  1  0
 27 28  1  0
 28 29  1  0
 29 30  1  0
 29 31  1  0
 31 32  1  0
 32 26  1  0
 25 33  1  0
 33 34  2  3
 34 20  1  0
 18 35  2  3
 35  2  1  0
M  END
> <smiles>
NC1=C(C(C2=CC=C(NC(C=C)=O)C=C2)=O)SC(NC3=C(OC)C=C(N4CCN(C)CC4)C=C3)=N1

> <facility_reagent_id>
HMSL10090

> <salt_id>
101

> <chemical_name>
XMD15-27

> <inchi>
InChI=1S/C25H28N6O3S/c1-4-21(32)27-17-7-5-16(6-8-17)22(33)23-24(26)29-25(35-23)28-19-10-9-18(15-20(19)34-3)31-13-11-30(2)12-14-31/h4-10,15H,1,11-14,26H2,2-3H3,(H,27,32)(H,28,29)

> <inchi_key>

> <chebi_id>

> <lincs_id>

> <pubchem_cid>
n/a

> <chembl_id>
n/a

> <molecular_mass>
492.59

> <molecular_formula>
C25H28N6O3S

$$$$

  SciTegic08031211342D

 34 37  0  0  0  0            999 V2000
    0.0000    0.0000    0.0000 O   0  0
    0.0000    0.0000    0.0000 C   0  0
    0.0000    0.0000    0.0000 C   0  0
    0.0000    0.0000    0.0000 C   0  0
    0.0000    0.0000    0.0000 C   0  0
    0.0000    0.0000    0.0000 C   0  0
    0.0000    0.0000    0.0000 C   0  0
    0.0000    0.0000    0.0000 C   0  0
    0.0000    0.0000    0.0000 N   0  0
    0.0000    0.0000    0.0000 C   0  0
    0.0000    0.0000    0.0000 C   0  0
    0.0000    0.0000    0.0000 N   0  0
    0.0000    0.0000    0.0000 C   0  0
    0.0000    0.0000    0.0000 N   0  0
    0.0000    0.0000    0.0000 C   0  0
    0.0000    0.0000    0.0000 C   0  0
    0.0000    0.0000    0.0000 C   0  0
    0.0000    0.0000    0.0000 N   0  0
    0.0000    0.0000    0.0000 C   0  0
    0.0000    0.0000    0.0000 C   0  0
    0.0000    0.0000    0.0000 C   0  0
    0.0000    0.0000    0.0000 C   0  0
    0.0000    0.0000    0.0000 N   0  0
    0.0000    0.0000    0.0000 C   0  0
    0.0000    0.0000    0.0000 C   0  0
    0.0000    0.0000    0.0000 O   0  0
    0.0000    0.0000    0.0000 C   0  0
    0.0000    0.0000    0.0000 C   0  0
    0.0000    0.0000    0.0000 C   0  0
    0.0000    0.0000    0.0000 N   0  0
    0.0000    0.0000    0.0000 C   0  0
    0.0000    0.0000    0.0000 C   0  0
    0.0000    0.0000    0.0000 N   0  0
    0.0000    0.0000    0.0000 C   0  0
  1  2  2  0
  2  3  1  0
  3  4  2  3
  4  5  1  0
  5  6  2  3
  6  7  1  0
  7  8  2  3
  8  3  1  0
  4  9  1  0
  9 10  1  0
  9 11  1  0
 11 12  2  3
 12 13  1  0
 13 14  1  0
 14 15  1  0
 15 16  2  3
 16 17  1  0
 17 18  1  0
 18 19  1  0
 19 20  1  0
 20 21  2  3
 21 22  1  0
 22 23  1  0
 23 24  1  0
 23 25  1  0
 19 26  2  0
 17 27  2  3
 27 28  1  0
 28 29  2  3
 29 15  1  0
 13 30  2  3
 30 31  1  0
 31 32  2  3
 32 11  1  0
 32 33  1  0
 33  2  1  0
 33 34  1  0
M  END
> <smiles>
O=C1C2=C(C=CC=C2)N(C)C3=NC(NC4=CC(NC(/C=C/CN(C)C)=O)=CC=C4)=NC=C3N1C

> <facility_reagent_id>
HMSL10091

> <salt_id>
101

> <chemical_name>
XMD16-144

> <inchi>
InChI=1S/C25H27N7O2/c1-30(2)14-8-13-22(33)27-17-9-7-10-18(15-17)28-25-26-16-21-23(29-25)31(3)20-12-6-5-11-19(20)24(34)32(21)4/h5-13,15-16H,14H2,1-4H3,(H,27,33)(H,26,28,29)/b13-8+

> <inchi_key>

> <chebi_id>

> <lincs_id>

> <pubchem_cid>
n/a

> <chembl_id>
n/a

> <molecular_mass>
457.53

> <molecular_formula>
C25H27N7O2

$$$$

  SciTegic08031211342D

 38 42  0  0  0  0            999 V2000
    0.0000    0.0000    0.0000 O   0  0
    0.0000    0.0000    0.0000 C   0  0
    0.0000    0.0000    0.0000 N   0  0
    0.0000    0.0000    0.0000 C   0  0
    0.0000    0.0000    0.0000 C   0  0
    0.0000    0.0000    0.0000 C   0  0
    0.0000    0.0000    0.0000 N   0  0
    0.0000    0.0000    0.0000 C   0  0
    0.0000    0.0000    0.0000 N   0  0
    0.0000    0.0000    0.0000 C   0  0
    0.0000    0.0000    0.0000 C   0  0
    0.0000    0.0000    0.0000 C   0  0
    0.0000    0.0000    0.0000 C   0  0
    0.0000    0.0000    0.0000 C   0  0
    0.0000    0.0000    0.0000 C   0  0
    0.0000    0.0000    0.0000 F   0  0
    0.0000    0.0000    0.0000 F   0  0
    0.0000    0.0000    0.0000 F   0  0
    0.0000    0.0000    0.0000 C   0  0
    0.0000    0.0000    0.0000 C   0  0
    0.0000    0.0000    0.0000 N   0  0
    0.0000    0.0000    0.0000 C   0  0
    0.0000    0.0000    0.0000 C   0  0
    0.0000    0.0000    0.0000 N   0  0
    0.0000    0.0000    0.0000 C   0  0
    0.0000    0.0000    0.0000 C   0  0
    0.0000    0.0000    0.0000 C   0  0
    0.0000    0.0000    0.0000 C   0  0
    0.0000    0.0000    0.0000 N   0  0
    0.0000    0.0000    0.0000 C   0  0
    0.0000    0.0000    0.0000 N   0  0
    0.0000    0.0000    0.0000 C   0  0
    0.0000    0.0000    0.0000 C   0  0
    0.0000    0.0000    0.0000 C   0  0
    0.0000    0.0000    0.0000 C   0  0
    0.0000    0.0000    0.0000 C   0  0
    0.0000    0.0000    0.0000 C   0  0
    0.0000    0.0000    0.0000 C   0  0
  1  2  2  0
  2  3  1  0
  3  4  1  0
  3  5  1  0
  5  6  2  3
  6  7  1  0
  7  8  2  3
  8  9  1  0
  9 10  1  0
 10 11  1  0
 11 12  2  3
 10 13  2  3
 13 14  1  0
 14 15  1  0
 15 16  1  0
 15 17  1  0
 15 18  1  0
 14 19  2  3
 19 12  1  0
 19 20  1  0
 20 21  1  0
 21 22  1  0
 22 23  1  0
 23 24  1  0
 24 25  1  0
 25 26  1  0
 24 27  1  0
 27 28  1  0
 28 21  1  0
  8 29  1  0
 29 30  2  3
 30  5  1  0
  6 31  1  0
 31 32  1  0
 31 33  1  0
 33 34  2  3
 34 35  1  0
 35 36  2  3
 36 37  1  0
 37 38  2  3
 38 33  1  0
 38  2  1  0
M  END
> <smiles>
O=C1N(C)C2=C(N=C(NC(C=C3)=CC(C(F)(F)F)=C3CN4CCN(CC)CC4)N=C2)N(C)C5=CC=CC=C51

> <facility_reagent_id>
HMSL10092

> <salt_id>
101

> <chemical_name>
JWE-035

> <inchi>
InChI=1S/C27H30F3N7O/c1-4-36-11-13-37(14-12-36)17-18-9-10-19(15-21(18)27(28,29)30)32-26-31-16-23-24(33-26)34(2)22-8-6-5-7-20(22)25(38)35(23)3/h5-10,15-16H,4,11-14,17H2,1-3H3,(H,31,32,33)

> <inchi_key>

> <chebi_id>

> <lincs_id>

> <pubchem_cid>
n/a

> <chembl_id>
n/a

> <molecular_mass>
525.25

> <molecular_formula>
C27H30F3N7O

$$$$

  SciTegic08031211342D

 34 38  0  0  0  0            999 V2000
    0.0000    0.0000    0.0000 O   0  0
    0.0000    0.0000    0.0000 C   0  0
    0.0000    0.0000    0.0000 N   0  0
    0.0000    0.0000    0.0000 C   0  0
    0.0000    0.0000    0.0000 C   0  0
    0.0000    0.0000    0.0000 C   0  0
    0.0000    0.0000    0.0000 N   0  0
    0.0000    0.0000    0.0000 C   0  0
    0.0000    0.0000    0.0000 N   0  0
    0.0000    0.0000    0.0000 C   0  0
    0.0000    0.0000    0.0000 C   0  0
    0.0000    0.0000    0.0000 O   0  0
    0.0000    0.0000    0.0000 C   0  0
    0.0000    0.0000    0.0000 C   0  0
    0.0000    0.0000    0.0000 C   0  0
    0.0000    0.0000    0.0000 N   0  0
    0.0000    0.0000    0.0000 C   0  0
    0.0000    0.0000    0.0000 C   0  0
    0.0000    0.0000    0.0000 N   0  0
    0.0000    0.0000    0.0000 C   0  0
    0.0000    0.0000    0.0000 C   0  0
    0.0000    0.0000    0.0000 C   0  0
    0.0000    0.0000    0.0000 C   0  0
    0.0000    0.0000    0.0000 C   0  0
    0.0000    0.0000    0.0000 N   0  0
    0.0000    0.0000    0.0000 C   0  0
    0.0000    0.0000    0.0000 N   0  0
    0.0000    0.0000    0.0000 C   0  0
    0.0000    0.0000    0.0000 C   0  0
    0.0000    0.0000    0.0000 C   0  0
    0.0000    0.0000    0.0000 C   0  0
    0.0000    0.0000    0.0000 C   0  0
    0.0000    0.0000    0.0000 C   0  0
    0.0000    0.0000    0.0000 C   0  0
  1  2  2  0
  2  3  1  0
  3  4  1  0
  3  5  1  0
  5  6  2  3
  6  7  1  0
  7  8  2  3
  8  9  1  0
  9 10  1  0
 10 11  2  3
 11 12  1  0
 12 13  1  0
 11 14  1  0
 14 15  2  3
 15 16  1  0
 16 17  1  0
 17 18  1  0
 18 19  1  0
 19 20  1  0
 19 21  1  0
 21 22  1  0
 22 16  1  0
 15 23  1  0
 23 24  2  3
 24 10  1  0
  8 25  1  0
 25 26  2  3
 26  5  1  0
  6 27  1  0
 27 28  1  0
 27 29  1  0
 29 30  2  3
 30 31  1  0
 31 32  2  3
 32 33  1  0
 33 34  2  3
 34 29  1  0
 34  2  1  0
M  END
> <smiles>
O=C1N(C)C2=C(N=C(NC3=C(OC)C=C(N4CCN(C)CC4)C=C3)N=C2)N(C)C5=CC=CC=C51

> <facility_reagent_id>
HMSL10093

> <salt_id>
101

> <chemical_name>
XMD8-85

> <inchi>
InChI=1S/C25H29N7O2/c1-29-11-13-32(14-12-29)17-9-10-19(22(15-17)34-4)27-25-26-16-21-23(28-25)30(2)20-8-6-5-7-18(20)24(33)31(21)3/h5-10,15-16H,11-14H2,1-4H3,(H,26,27,28)

> <inchi_key>

> <chebi_id>

> <lincs_id>

> <pubchem_cid>
n/a

> <chembl_id>
n/a

> <molecular_mass>
459.54

> <molecular_formula>
C25H29N7O2

$$$$

  SciTegic08031211342D

 35 39  0  0  0  0            999 V2000
    0.0000    0.0000    0.0000 O   0  0
    0.0000    0.0000    0.0000 C   0  0
    0.0000    0.0000    0.0000 N   0  0
    0.0000    0.0000    0.0000 C   0  0
    0.0000    0.0000    0.0000 C   0  0
    0.0000    0.0000    0.0000 C   0  0
    0.0000    0.0000    0.0000 N   0  0
    0.0000    0.0000    0.0000 C   0  0
    0.0000    0.0000    0.0000 N   0  0
    0.0000    0.0000    0.0000 C   0  0
    0.0000    0.0000    0.0000 C   0  0
    0.0000    0.0000    0.0000 O   0  0
    0.0000    0.0000    0.0000 C   0  0
    0.0000    0.0000    0.0000 C   0  0
    0.0000    0.0000    0.0000 C   0  0
    0.0000    0.0000    0.0000 C   0  0
    0.0000    0.0000    0.0000 N   0  0
    0.0000    0.0000    0.0000 C   0  0
    0.0000    0.0000    0.0000 C   0  0
    0.0000    0.0000    0.0000 C   0  0
    0.0000    0.0000    0.0000 O   0  0
    0.0000    0.0000    0.0000 C   0  0
    0.0000    0.0000    0.0000 C   0  0
    0.0000    0.0000    0.0000 C   0  0
    0.0000    0.0000    0.0000 C   0  0
    0.0000    0.0000    0.0000 N   0  0
    0.0000    0.0000    0.0000 C   0  0
    0.0000    0.0000    0.0000 N   0  0
    0.0000    0.0000    0.0000 C   0  0
    0.0000    0.0000    0.0000 C   0  0
    0.0000    0.0000    0.0000 C   0  0
    0.0000    0.0000    0.0000 C   0  0
    0.0000    0.0000    0.0000 C   0  0
    0.0000    0.0000    0.0000 C   0  0
    0.0000    0.0000    0.0000 C   0  0
  1  2  2  0
  2  3  1  0
  3  4  1  0
  3  5  1  0
  5  6  2  3
  6  7  1  0
  7  8  2  3
  8  9  1  0
  9 10  1  0
 10 11  2  3
 11 12  1  0
 12 13  1  0
 13 14  1  0
 11 15  1  0
 15 16  2  3
 16 17  1  0
 17 18  1  0
 18 19  1  0
 19 20  1  0
 20 21  1  0
 20 22  1  0
 22 23  1  0
 23 17  1  0
 16 24  1  0
 24 25  2  3
 25 10  1  0
  8 26  1  0
 26 27  2  3
 27  5  1  0
  6 28  1  0
 28 29  1  0
 28 30  1  0
 30 31  2  3
 31 32  1  0
 32 33  2  3
 33 34  1  0
 34 35  2  3
 35 30  1  0
 35  2  1  0
M  END
> <smiles>
O=C1N(C)C2=C(N=C(NC3=C(OCC)C=C(N4CCC(O)CC4)C=C3)N=C2)N(C)C5=CC=CC=C51

> <facility_reagent_id>
HMSL10094

> <salt_id>
101

> <chemical_name>
XMD8-92

> <inchi>
InChI=1S/C26H30N6O3/c1-4-35-23-15-17(32-13-11-18(33)12-14-32)9-10-20(23)28-26-27-16-22-24(29-26)30(2)21-8-6-5-7-19(21)25(34)31(22)3/h5-10,15-16,18,33H,4,11-14H2,1-3H3,(H,27,28,29)

> <inchi_key>

> <chebi_id>

> <lincs_id>

> <pubchem_cid>
n/a

> <chembl_id>
n/a

> <molecular_mass>
474.55

> <molecular_formula>
C26H30N6O3

$$$$

  SciTegic08031211342D

 37 40  0  0  0  0            999 V2000
    0.0000    0.0000    0.0000 O   0  0
    0.0000    0.0000    0.0000 C   0  0
    0.0000    0.0000    0.0000 C   0  0
    0.0000    0.0000    0.0000 C   0  0
    0.0000    0.0000    0.0000 C   0  0
    0.0000    0.0000    0.0000 C   0  0
    0.0000    0.0000    0.0000 N   0  0
    0.0000    0.0000    0.0000 C   0  0
    0.0000    0.0000    0.0000 C   0  0
    0.0000    0.0000    0.0000 C   0  0
    0.0000    0.0000    0.0000 C   0  0
    0.0000    0.0000    0.0000 N   0  0
    0.0000    0.0000    0.0000 C   0  0
    0.0000    0.0000    0.0000 C   0  0
    0.0000    0.0000    0.0000 O   0  0
    0.0000    0.0000    0.0000 C   0  0
    0.0000    0.0000    0.0000 C   0  0
    0.0000    0.0000    0.0000 N   0  0
    0.0000    0.0000    0.0000 C   0  0
    0.0000    0.0000    0.0000 C   0  0
    0.0000    0.0000    0.0000 C   0  0
    0.0000    0.0000    0.0000 N   0  0
    0.0000    0.0000    0.0000 C   0  0
    0.0000    0.0000    0.0000 N   0  0
    0.0000    0.0000    0.0000 C   0  0
    0.0000    0.0000    0.0000 C   0  0
    0.0000    0.0000    0.0000 C   0  0
    0.0000    0.0000    0.0000 C   0  0
    0.0000    0.0000    0.0000 C   0  0
    0.0000    0.0000    0.0000 N   0  0
    0.0000    0.0000    0.0000 C   0  0
    0.0000    0.0000    0.0000 C   0  0
    0.0000    0.0000    0.0000 C   0  0
    0.0000    0.0000    0.0000 N   0  0
    0.0000    0.0000    0.0000 C   0  0
    0.0000    0.0000    0.0000 C   0  0
    0.0000    0.0000    0.0000 C   0  0
  1  2  2  0
  2  3  1  0
  3  4  2  3
  4  5  1  0
  5  6  2  3
  6  7  1  0
  7  8  1  0
  8  9  1  0
  9 10  2  3
 10 11  1  0
 11 12  1  0
 12 13  1  0
 12 14  1  0
  8 15  2  0
  6 16  1  0
 16 17  2  3
 17  3  1  0
  2 18  1  0
 18 19  1  0
 19 20  2  3
 20 21  1  0
 21 22  1  0
 22 23  1  0
 23 24  2  3
 24 25  1  0
 25 26  1  0
 26 27  2  3
 27 28  1  0
 28 29  2  3
 29 30  1  0
 30 31  2  3
 31 26  1  0
 25 32  2  3
 32 33  1  0
 33 34  2  3
 34 23  1  0
 21 35  2  3
 35 36  1  0
 36 37  2  3
 37 19  1  0
M  END
> <smiles>
O=C(C1=CC=C(NC(/C=C/CN(C)C)=O)C=C1)NC2=CC(NC3=NC(C4=CC=CN=C4)=CC=N3)=CC=C2

> <facility_reagent_id>
HMSL10095

> <salt_id>
101

> <chemical_name>
ZG-10

> <inchi>
InChI=1S/C28H27N7O2/c1-35(2)17-5-9-26(36)31-22-12-10-20(11-13-22)27(37)32-23-7-3-8-24(18-23)33-28-30-16-14-25(34-28)21-6-4-15-29-19-21/h3-16,18-19H,17H2,1-2H3,(H,31,36)(H,32,37)(H,30,33,34)/b9-5+

> <inchi_key>

> <chebi_id>

> <lincs_id>

> <pubchem_cid>
n/a

> <chembl_id>
n/a

> <molecular_mass>
493.56

> <molecular_formula>
C28H27N7O2

$$$$

  SciTegic08031211342D

 38 42  0  0  0  0            999 V2000
    0.0000    0.0000    0.0000 O   0  0
    0.0000    0.0000    0.0000 C   0  0
    0.0000    0.0000    0.0000 N   0  0
    0.0000    0.0000    0.0000 C   0  0
    0.0000    0.0000    0.0000 C   0  0
    0.0000    0.0000    0.0000 C   0  0
    0.0000    0.0000    0.0000 C   0  0
    0.0000    0.0000    0.0000 N   0  0
    0.0000    0.0000    0.0000 C   0  0
    0.0000    0.0000    0.0000 C   0  0
    0.0000    0.0000    0.0000 C   0  0
    0.0000    0.0000    0.0000 C   0  0
    0.0000    0.0000    0.0000 O   0  0
    0.0000    0.0000    0.0000 C   0  0
    0.0000    0.0000    0.0000 C   0  0
    0.0000    0.0000    0.0000 O   0  0
    0.0000    0.0000    0.0000 C   0  0
    0.0000    0.0000    0.0000 C   0  0
    0.0000    0.0000    0.0000 C   0  0
    0.0000    0.0000    0.0000 N   0  0
    0.0000    0.0000    0.0000 C   0  0
    0.0000    0.0000    0.0000 C   0  0
    0.0000    0.0000    0.0000 O   0  0
    0.0000    0.0000    0.0000 C   0  0
    0.0000    0.0000    0.0000 C   0  0
    0.0000    0.0000    0.0000 C   0  0
    0.0000    0.0000    0.0000 C   0  0
    0.0000    0.0000    0.0000 N   0  0
    0.0000    0.0000    0.0000 C   0  0
    0.0000    0.0000    0.0000 N   0  0
    0.0000    0.0000    0.0000 C   0  0
    0.0000    0.0000    0.0000 C   0  0
    0.0000    0.0000    0.0000 C   0  0
    0.0000    0.0000    0.0000 C   0  0
    0.0000    0.0000    0.0000 C   0  0
    0.0000    0.0000    0.0000 C   0  0
    0.0000    0.0000    0.0000 C   0  0
    0.0000    0.0000    0.0000 C   0  0
  1  2  2  0
  2  3  1  0
  3  4  1  0
  4  5  2  3
  5  6  1  0
  6  7  2  3
  7  8  1  0
  8  9  1  0
  9 10  2  3
 10 11  1  0
 11 12  2  3
 12 13  1  0
 13 14  1  0
 12 15  1  0
 15 16  1  0
 16 17  1  0
 17 18  1  0
 18 19  1  0
 19 20  1  0
 20 21  1  0
 21 22  1  0
 22 23  1  0
 23 24  1  0
 24 25  1  0
 25 20  1  0
 15 26  2  3
 26 27  1  0
 27 10  1  0
 27 28  2  3
 28 29  1  0
 29 30  2  3
 30  9  1  0
  7 31  1  0
 31 32  2  3
 32  4  1  0
  2 33  1  0
 33 34  2  3
 34 35  1  0
 35 36  2  3
 36 37  1  0
 37 38  2  3
 38 33  1  0
M  END
> <smiles>
O=C(NC1=CC=C(NC2=C3C=C(OC)C(OCCCN4CCOCC4)=CC3=NC=N2)C=C1)C5=CC=CC=C5

> <facility_reagent_id>
HMSL10096

> <salt_id>
101

> <chemical_name>
ZM-447439

> <inchi>
InChI=1S/C29H31N5O4/c1-36-26-18-24-25(19-27(26)38-15-5-12-34-13-16-37-17-14-34)30-20-31-28(24)32-22-8-10-23(11-9-22)33-29(35)21-6-3-2-4-7-21/h2-4,6-11,18-20H,5,12-17H2,1H3,(H,33,35)(H,30,31,32)

> <inchi_key>

> <chebi_id>

> <lincs_id>

> <pubchem_cid>
n/a

> <chembl_id>
n/a

> <molecular_mass>
513.59

> <molecular_formula>
C29H31N5O4

$$$$

  SciTegic08031211342D

 29 31  0  0  0  0            999 V2000
    0.0000    0.0000    0.0000 C   0  0
    0.0000    0.0000    0.0000 C   0  0
    0.0000    0.0000    0.0000 C   0  0
    0.0000    0.0000    0.0000 C   0  0
    0.0000    0.0000    0.0000 C   0  0
    0.0000    0.0000    0.0000 C   0  0
    0.0000    0.0000    0.0000 C   0  0
    0.0000    0.0000    0.0000 N   0  0
    0.0000    0.0000    0.0000 C   0  0
    0.0000    0.0000    0.0000 N   0  0
    0.0000    0.0000    0.0000 C   0  0
    0.0000    0.0000    0.0000 N   0  0
    0.0000    0.0000    0.0000 C   0  0
    0.0000    0.0000    0.0000 C   0  0
    0.0000    0.0000    0.0000 C   0  0
    0.0000    0.0000    0.0000 O   0  0
    0.0000    0.0000    0.0000 C   0  0
    0.0000    0.0000    0.0000 C   0  0
    0.0000    0.0000    0.0000 O   0  0
    0.0000    0.0000    0.0000 C   0  0
    0.0000    0.0000    0.0000 C   0  0
    0.0000    0.0000    0.0000 O   0  0
    0.0000    0.0000    0.0000 C   0  0
    0.0000    0.0000    0.0000 C   0  0
    0.0000    0.0000    0.0000 O   0  0
    0.0000    0.0000    0.0000 C   0  0
    0.0000    0.0000    0.0000 C   0  0
    0.0000    0.0000    0.0000 C   0  0
    0.0000    0.0000    0.0000 C   0  0
  1  2  3  0
  2  3  1  0
  3  4  2  3
  4  5  1  0
  5  6  2  3
  6  7  1  0
  7  8  1  0
  8  9  1  0
  9 10  2  3
 10 11  1  0
 11 12  2  3
 12 13  1  0
 13 14  2  3
 14 15  1  0
 15 16  1  0
 16 17  1  0
 17 18  1  0
 18 19  1  0
 19 20  1  0
 15 21  2  3
 21 22  1  0
 22 23  1  0
 23 24  1  0
 24 25  1  0
 25 26  1  0
 21 27  1  0
 27 28  2  3
 28 13  1  0
 28  9  1  0
  7 29  2  3
 29  3  1  0
M  END
> <smiles>
C#CC1=CC=CC(NC2=NC=NC3=CC(OCCOC)=C(OCCOC)C=C32)=C1

> <facility_reagent_id>
HMSL10097

> <salt_id>
101

> <chemical_name>
OSI-774; Erlotinib

> <inchi>
InChI=1S/C22H23N3O4/c1-4-16-6-5-7-17(12-16)25-22-18-13-20(28-10-8-26-2)21(29-11-9-27-3)14-19(18)23-15-24-22/h1,5-7,12-15H,8-11H2,2-3H3,(H,23,24,25)

> <inchi_key>

> <chebi_id>

> <lincs_id>

> <pubchem_cid>
176870

> <chembl_id>
553

> <molecular_mass>
393.17

> <molecular_formula>
C22H23N3O4

$$$$

  SciTegic08031211342D

 31 34  0  0  0  0            999 V2000
    0.0000    0.0000    0.0000 F   0  0
    0.0000    0.0000    0.0000 C   0  0
    0.0000    0.0000    0.0000 C   0  0
    0.0000    0.0000    0.0000 C   0  0
    0.0000    0.0000    0.0000 C   0  0
    0.0000    0.0000    0.0000 Cl  0  0
    0.0000    0.0000    0.0000 C   0  0
    0.0000    0.0000    0.0000 C   0  0
    0.0000    0.0000    0.0000 N   0  0
    0.0000    0.0000    0.0000 C   0  0
    0.0000    0.0000    0.0000 N   0  0
    0.0000    0.0000    0.0000 C   0  0
    0.0000    0.0000    0.0000 N   0  0
    0.0000    0.0000    0.0000 C   0  0
    0.0000    0.0000    0.0000 C   0  0
    0.0000    0.0000    0.0000 C   0  0
    0.0000    0.0000    0.0000 O   0  0
    0.0000    0.0000    0.0000 C   0  0
    0.0000    0.0000    0.0000 C   0  0
    0.0000    0.0000    0.0000 O   0  0
    0.0000    0.0000    0.0000 C   0  0
    0.0000    0.0000    0.0000 C   0  0
    0.0000    0.0000    0.0000 C   0  0
    0.0000    0.0000    0.0000 N   0  0
    0.0000    0.0000    0.0000 C   0  0
    0.0000    0.0000    0.0000 C   0  0
    0.0000    0.0000    0.0000 O   0  0
    0.0000    0.0000    0.0000 C   0  0
    0.0000    0.0000    0.0000 C   0  0
    0.0000    0.0000    0.0000 C   0  0
    0.0000    0.0000    0.0000 C   0  0
  1  2  1  0
  2  3  1  0
  3  4  2  3
  2  5  2  3
  5  6  1  0
  5  7  1  0
  7  8  2  3
  8  4  1  0
  8  9  1  0
  9 10  1  0
 10 11  2  3
 11 12  1  0
 12 13  2  3
 13 14  1  0
 14 15  2  3
 15 16  1  0
 16 17  1  0
 17 18  1  0
 16 19  2  3
 19 20  1  0
 20 21  1  0
 21 22  1  0
 22 23  1  0
 23 24  1  0
 24 25  1  0
 25 26  1  0
 26 27  1  0
 27 28  1  0
 28 29  1  0
 29 24  1  0
 19 30  1  0
 30 31  2  3
 31 14  1  0
 31 10  1  0
M  END
> <smiles>
FC(C=C1)=C(Cl)C=C1NC2=NC=NC3=CC(OC)=C(OCCCN4CCOCC4)C=C32

> <facility_reagent_id>
HMSL10098

> <salt_id>
101

> <chemical_name>
ZD1839; Gefitinib

> <inchi>
InChI=1S/C22H24ClFN4O3/c1-29-20-13-19-16(12-21(20)31-8-2-5-28-6-9-30-10-7-28)22(26-14-25-19)27-15-3-4-18(24)17(23)11-15/h3-4,11-14H,2,5-10H2,1H3,(H,25,26,27)

> <inchi_key>

> <chebi_id>

> <lincs_id>

> <pubchem_cid>
123631

> <chembl_id>
n/a

> <molecular_mass>
446.15

> <molecular_formula>
C22H24ClFN4O3

$$$$

  SciTegic08031211342D

 39 43  0  0  0  0            999 V2000
    0.0000    0.0000    0.0000 C   0  0
    0.0000    0.0000    0.0000 C   0  0
    0.0000    0.0000    0.0000 C   0  0
    0.0000    0.0000    0.0000 N   0  0
    0.0000    0.0000    0.0000 C   0  0
    0.0000    0.0000    0.0000 N   0  0
    0.0000    0.0000    0.0000 C   0  0
    0.0000    0.0000    0.0000 C   0  0
    0.0000    0.0000    0.0000 C   0  0
    0.0000    0.0000    0.0000 C   0  0
    0.0000    0.0000    0.0000 C   0  0
    0.0000    0.0000    0.0000 N   0  0
    0.0000    0.0000    0.0000 C   0  0
    0.0000    0.0000    0.0000 C   0  0
    0.0000    0.0000    0.0000 C   0  0
    0.0000    0.0000    0.0000 N   0  0
    0.0000    0.0000    0.0000 C   0  0
    0.0000    0.0000    0.0000 C   0  0
    0.0000    0.0000    0.0000 C   0  0
    0.0000    0.0000    0.0000 N   0  0
    0.0000    0.0000    0.0000 C   0  0
    0.0000    0.0000    0.0000 C   0  0
    0.0000    0.0000    0.0000 C   0  0
    0.0000    0.0000    0.0000 N   0  0
    0.0000    0.0000    0.0000 C   0  0
    0.0000    0.0000    0.0000 C   0  0
    0.0000    0.0000    0.0000 C   0  0
    0.0000    0.0000    0.0000 N   0  0
    0.0000    0.0000    0.0000 C   0  0
    0.0000    0.0000    0.0000 C   0  0
    0.0000    0.0000    0.0000 C   0  0
    0.0000    0.0000    0.0000 C   0  0
    0.0000    0.0000    0.0000 F   0  0
    0.0000    0.0000    0.0000 F   0  0
    0.0000    0.0000    0.0000 F   0  0
    0.0000    0.0000    0.0000 C   0  0
    0.0000    0.0000    0.0000 O   0  0
    0.0000    0.0000    0.0000 C   0  0
    0.0000    0.0000    0.0000 C   0  0
  1  2  1  0
  2  3  2  3
  3  4  1  0
  4  5  1  0
  5  6  2  3
  6  7  1  0
  7  8  1  0
  8  9  2  3
  9 10  1  0
 10 11  2  3
 11 12  1  0
 12 13  2  3
 13  8  1  0
  7 14  2  3
 14 15  1  0
 15 16  2  3
 16  5  1  0
  3 17  1  0
 17 18  2  3
 18 19  1  0
 19 20  1  0
 20 21  1  0
 21 22  2  3
 22 23  1  0
 23 24  1  0
 24 25  1  0
 25 26  2  3
 26 27  1  0
 26 28  1  0
 28 29  2  3
 29 24  1  0
 23 30  2  3
 30 31  1  0
 31 32  1  0
 32 33  1  0
 32 34  1  0
 32 35  1  0
 31 36  2  3
 36 21  1  0
 19 37  2  0
 18 38  1  0
 38 39  2  3
 39  2  1  0
M  END
> <smiles>
CC1=C(NC2=NC(C3=CC=CN=C3)=CC=N2)C=C(C(NC4=CC(N5C=C(C)N=C5)=CC(C(F)(F)F)=C4)=O)C=C1

> <facility_reagent_id>
HMSL10099

> <salt_id>
101

> <chemical_name>
AMN-107; Nilotinib

> <inchi>
InChI=1S/C28H22F3N7O/c1-17-5-6-19(10-25(17)37-27-33-9-7-24(36-27)20-4-3-8-32-14-20)26(39)35-22-11-21(28(29,30)31)12-23(13-22)38-15-18(2)34-16-38/h3-16H,1-2H3,(H,35,39)(H,33,36,37)

> <inchi_key>

> <chebi_id>

> <lincs_id>

> <pubchem_cid>
64424

> <chembl_id>
255863

> <molecular_mass>
529.18

> <molecular_formula>
C28H22F3N7O

$$$$

  SciTegic08031211342D

 38 43  0  0  0  0            999 V2000
    0.0000    0.0000    0.0000 N   0  0
    0.0000    0.0000    0.0000 C   0  0
    0.0000    0.0000    0.0000 C   0  0
    0.0000    0.0000    0.0000 C   0  0
    0.0000    0.0000    0.0000 C   0  0
    0.0000    0.0000    0.0000 N   0  0
    0.0000    0.0000    0.0000 C   0  0
    0.0000    0.0000    0.0000 C   0  0
    0.0000    0.0000    0.0000 O   0  0
    0.0000    0.0000    0.0000 C   0  0
    0.0000    0.0000    0.0000 C   0  0
    0.0000    0.0000    0.0000 C   0  0
    0.0000    0.0000    0.0000 C   0  0
    0.0000    0.0000    0.0000 C   0  0
    0.0000    0.0000    0.0000 N   0  0
    0.0000    0.0000    0.0000 C   0  0
    0.0000    0.0000    0.0000 N   0  0
    0.0000    0.0000    0.0000 C   0  0
    0.0000    0.0000    0.0000 C   0  0
    0.0000    0.0000    0.0000 C   0  0
    0.0000    0.0000    0.0000 C   0  0
    0.0000    0.0000    0.0000 N   0  0
    0.0000    0.0000    0.0000 N   0  0
    0.0000    0.0000    0.0000 C   0  0
    0.0000    0.0000    0.0000 C   0  0
    0.0000    0.0000    0.0000 C   0  0
    0.0000    0.0000    0.0000 N   0  0
    0.0000    0.0000    0.0000 C   0  0
    0.0000    0.0000    0.0000 C   0  0
    0.0000    0.0000    0.0000 C   0  0
    0.0000    0.0000    0.0000 N   0  0
    0.0000    0.0000    0.0000 C   0  0
    0.0000    0.0000    0.0000 C   0  0
    0.0000    0.0000    0.0000 C   0  0
    0.0000    0.0000    0.0000 N   0  0
    0.0000    0.0000    0.0000 C   0  0
    0.0000    0.0000    0.0000 C   0  0
    0.0000    0.0000    0.0000 C   0  0
  1  2  3  0
  2  3  1  0
  3  4  2  3
  4  5  1  0
  5  6  1  0
  6  7  1  0
  7  8  1  0
  8  9  1  0
  9 10  1  0
 10 11  1  0
 11  6  1  0
  5 12  2  3
 12 13  1  0
 13 14  1  0
 14 15  2  3
 15 16  1  0
 16 17  1  0
 17 18  1  0
 18 19  2  3
 19 20  1  0
 20 21  2  3
 21 22  1  0
 22 23  1  0
 23 24  2  3
 24 25  1  0
 25 26  2  3
 26 27  1  0
 27 28  2  3
 28 29  1  0
 29 30  2  3
 30 25  1  0
 24 31  1  0
 31 32  2  3
 32 22  1  0
 21 33  1  0
 33 34  2  3
 34 18  1  0
 16 35  2  3
 35 36  1  0
 36 37  2  3
 37 14  1  0
 13 38  2  3
 38  3  1  0
M  END
> <smiles>
N#CC1=CC(N2CCOCC2)=CC(C3=NC(NC4=CC=C(N5N=C(C6=CN=CC=C6)N=C5)C=C4)=NC=C3)=C1

> <facility_reagent_id>
HMSL10100

> <salt_id>
101

> <chemical_name>
JNK-9L; KIN001-204

> <inchi>
InChI=1S/C28H23N9O/c29-17-20-14-22(16-25(15-20)36-10-12-38-13-11-36)26-7-9-31-28(34-26)33-23-3-5-24(6-4-23)37-19-32-27(35-37)21-2-1-8-30-18-21/h1-9,14-16,18-19H,10-13H2,(H,31,33,34)

> <inchi_key>

> <chebi_id>

> <lincs_id>

> <pubchem_cid>
n/a

> <chembl_id>
n/a

> <molecular_mass>
501.2

> <molecular_formula>
C28H23N9O

$$$$

  SciTegic08031211342D

 26 27  0  0  1  0            999 V2000
    0.0000    0.0000    0.0000 F   0  0
    0.0000    0.0000    0.0000 C   0  0
    0.0000    0.0000    0.0000 C   0  0
    0.0000    0.0000    0.0000 F   0  0
    0.0000    0.0000    0.0000 C   0  0
    0.0000    0.0000    0.0000 C   0  0
    0.0000    0.0000    0.0000 C   0  0
    0.0000    0.0000    0.0000 C   0  0
    0.0000    0.0000    0.0000 N   0  0
    0.0000    0.0000    0.0000 O   0  0
    0.0000    0.0000    0.0000 C   0  0
    0.0000    0.0000    0.0000 C   0  0  2  0  0  0
    0.0000    0.0000    0.0000 O   0  0
    0.0000    0.0000    0.0000 C   0  0
    0.0000    0.0000    0.0000 O   0  0
    0.0000    0.0000    0.0000 O   0  0
    0.0000    0.0000    0.0000 C   0  0
    0.0000    0.0000    0.0000 N   0  0
    0.0000    0.0000    0.0000 C   0  0
    0.0000    0.0000    0.0000 C   0  0
    0.0000    0.0000    0.0000 C   0  0
    0.0000    0.0000    0.0000 C   0  0
    0.0000    0.0000    0.0000 I   0  0
    0.0000    0.0000    0.0000 C   0  0
    0.0000    0.0000    0.0000 C   0  0
    0.0000    0.0000    0.0000 F   0  0
  1  2  1  0
  2  3  2  3
  3  4  1  0
  3  5  1  0
  5  6  2  3
  6  7  1  0
  7  8  1  0
  8  9  1  0
  9 10  1  0
 10 11  1  0
 11 12  1  0
 12 13  1  1
 12 14  1  0
 14 15  1  0
  8 16  2  0
  7 17  2  3
 17  2  1  0
 17 18  1  0
 18 19  1  0
 19 20  2  3
 20 21  1  0
 21 22  2  3
 22 23  1  0
 22 24  1  0
 24 25  2  3
 25 19  1  0
 25 26  1  0
M  END
> <smiles>
FC1=C(F)C=CC(C(NOC[C@H](O)CO)=O)=C1NC2=CC=C(I)C=C2F

> <facility_reagent_id>
HMSL10101

> <salt_id>
101

> <chemical_name>
PD0325901; PD-325901

> <inchi>
InChI=1S/C16H14F3IN2O4/c17-11-3-2-10(16(25)22-26-7-9(24)6-23)15(14(11)19)21-13-4-1-8(20)5-12(13)18/h1-5,9,21,23-24H,6-7H2,(H,22,25)/t9-/m1/s1

> <inchi_key>

> <chebi_id>

> <lincs_id>

> <pubchem_cid>
9826528

> <chembl_id>
n/a

> <molecular_mass>
482.2

> <molecular_formula>
C16H14F3IN2O4

$$$$

  SciTegic08031211342D

 35 40  0  0  0  0            999 V2000
    0.0000    0.0000    0.0000 O   0  0
    0.0000    0.0000    0.0000 C   0  0
    0.0000    0.0000    0.0000 C   0  0
    0.0000    0.0000    0.0000 C   0  0
    0.0000    0.0000    0.0000 C   0  0
    0.0000    0.0000    0.0000 C   0  0
    0.0000    0.0000    0.0000 N   0  0
    0.0000    0.0000    0.0000 N   0  0
    0.0000    0.0000    0.0000 C   0  0
    0.0000    0.0000    0.0000 N   0  0
    0.0000    0.0000    0.0000 C   0  0
    0.0000    0.0000    0.0000 C   0  0
    0.0000    0.0000    0.0000 C   0  0
    0.0000    0.0000    0.0000 C   0  0
    0.0000    0.0000    0.0000 N   0  0
    0.0000    0.0000    0.0000 C   0  0
    0.0000    0.0000    0.0000 C   0  0
    0.0000    0.0000    0.0000 O   0  0
    0.0000    0.0000    0.0000 C   0  0
    0.0000    0.0000    0.0000 C   0  0
    0.0000    0.0000    0.0000 C   0  0
    0.0000    0.0000    0.0000 C   0  0
    0.0000    0.0000    0.0000 C   0  0
    0.0000    0.0000    0.0000 N   0  0
    0.0000    0.0000    0.0000 C   0  0
    0.0000    0.0000    0.0000 N   0  0
    0.0000    0.0000    0.0000 C   0  0
    0.0000    0.0000    0.0000 C   0  0
    0.0000    0.0000    0.0000 O   0  0
    0.0000    0.0000    0.0000 C   0  0
    0.0000    0.0000    0.0000 C   0  0
    0.0000    0.0000    0.0000 N   0  0
    0.0000    0.0000    0.0000 C   0  0
    0.0000    0.0000    0.0000 C   0  0
    0.0000    0.0000    0.0000 C   0  0
  1  2  2  0
  2  3  1  0
  3  4  2  3
  4  5  1  0
  5  6  2  3
  6  7  1  0
  6  8  1  0
  8  9  2  3
  9  3  1  0
  2 10  1  0
 10 11  1  0
 11 12  2  3
 12 13  1  0
 13 14  1  0
 14 15  2  3
 15 16  1  0
 16 17  2  3
 17 18  1  0
 18 19  1  0
 19 20  2  3
 20 16  1  0
 20 21  1  0
 21 22  2  3
 22 23  1  0
 23 24  2  3
 24 19  1  0
 17 25  1  0
 25 26  1  0
 26 27  1  0
 27 28  1  0
 28 29  1  0
 29 30  1  0
 30 31  1  0
 31 26  1  0
 25 32  2  3
 32 14  1  0
 13 33  2  3
 33 34  1  0
 34 35  2  3
 35 11  1  0
M  END
> <smiles>
O=C(C1=CC=C(N)N=C1)NC2=CC(C3=NC4=C(OC5=C4C=CC=N5)C(N6CCOCC6)=N3)=CC=C2

> <facility_reagent_id>
HMSL10109

> <salt_id>
101

> <chemical_name>
YM 201636; Kin001-170

> <inchi>
InChI=1S/C25H21N7O3/c26-19-7-6-16(14-28-19)24(33)29-17-4-1-3-15(13-17)22-30-20-18-5-2-8-27-25(18)35-21(20)23(31-22)32-9-11-34-12-10-32/h1-8,13-14H,9-12H2,(H2,26,28)(H,29,33)

> <inchi_key>

> <chebi_id>

> <lincs_id>

> <pubchem_cid>
n/a

> <chembl_id>
n/a

> <molecular_mass>
467.48

> <molecular_formula>
C25H21N7O3

$$$$

  SciTegic08031211342D

 25 29  0  0  0  0            999 V2000
    0.0000    0.0000    0.0000 N   0  0
    0.0000    0.0000    0.0000 C   0  0
    0.0000    0.0000    0.0000 N   0  0
    0.0000    0.0000    0.0000 N   0  0
    0.0000    0.0000    0.0000 C   0  0
    0.0000    0.0000    0.0000 N   0  0
    0.0000    0.0000    0.0000 N   0  0
    0.0000    0.0000    0.0000 C   0  0
    0.0000    0.0000    0.0000 C   0  0
    0.0000    0.0000    0.0000 C   0  0
    0.0000    0.0000    0.0000 C   0  0
    0.0000    0.0000    0.0000 C   0  0
    0.0000    0.0000    0.0000 C   0  0
    0.0000    0.0000    0.0000 C   0  0
    0.0000    0.0000    0.0000 N   0  0
    0.0000    0.0000    0.0000 N   0  0
    0.0000    0.0000    0.0000 C   0  0
    0.0000    0.0000    0.0000 C   0  0
    0.0000    0.0000    0.0000 C   0  0
    0.0000    0.0000    0.0000 C   0  0
    0.0000    0.0000    0.0000 C   0  0
    0.0000    0.0000    0.0000 C   0  0
    0.0000    0.0000    0.0000 C   0  0
    0.0000    0.0000    0.0000 C   0  0
    0.0000    0.0000    0.0000 C   0  0
  1  2  1  0
  2  3  2  3
  3  4  1  0
  4  5  1  0
  5  6  2  3
  6  7  1  0
  7  8  2  3
  8  9  1  0
  9 10  2  3
 10 11  1  0
 11 12  2  3
 12 13  1  0
 13 14  2  3
 14 15  1  0
 15 10  1  0
 15 16  1  0
 16 17  2  3
 17  9  1  0
 17 18  1  0
 18 19  2  3
 19 20  1  0
 20 21  2  3
 21 22  1  0
 22 23  2  3
 23 18  1  0
  8 24  1  0
 24 25  2  3
 25  5  1  0
 25  2  1  0
M  END
> <smiles>
NC1=NNC2=NN=C(C3=C4C=CC=CN4N=C3C5=CC=CC=C5)C=C21

> <facility_reagent_id>
HMSL10110

> <salt_id>
101

> <chemical_name>
FR180204; KIN001-230

> <inchi>
InChI=1S/C18H13N7/c19-17-12-10-13(20-22-18(12)23-21-17)15-14-8-4-5-9-25(14)24-16(15)11-6-2-1-3-7-11/h1-10H,(H3,19,21,22,23)

> <inchi_key>

> <chebi_id>

> <lincs_id>

> <pubchem_cid>
n/a

> <chembl_id>
n/a

> <molecular_mass>
327.34

> <molecular_formula>
C18H13N7

$$$$

  SciTegic08031211342D

 24 27  0  0  0  0            999 V2000
    0.0000    0.0000    0.0000 C   0  0
    0.0000    0.0000    0.0000 C   0  0
    0.0000    0.0000    0.0000 C   0  0
    0.0000    0.0000    0.0000 C   0  0
    0.0000    0.0000    0.0000 C   0  0
    0.0000    0.0000    0.0000 C   0  0
    0.0000    0.0000    0.0000 N   0  0
    0.0000    0.0000    0.0000 C   0  0
    0.0000    0.0000    0.0000 C   0  0
    0.0000    0.0000    0.0000 C   0  0
    0.0000    0.0000    0.0000 C   0  0
    0.0000    0.0000    0.0000 N   0  0
    0.0000    0.0000    0.0000 N   0  0
    0.0000    0.0000    0.0000 C   0  0
    0.0000    0.0000    0.0000 N   0  0
    0.0000    0.0000    0.0000 C   0  0
    0.0000    0.0000    0.0000 O   0  0
    0.0000    0.0000    0.0000 C   0  0
    0.0000    0.0000    0.0000 C   0  0
    0.0000    0.0000    0.0000 C   0  0
    0.0000    0.0000    0.0000 C   0  0
    0.0000    0.0000    0.0000 C   0  0
    0.0000    0.0000    0.0000 C   0  0
    0.0000    0.0000    0.0000 O   0  0
  1  2  2  3
  2  3  1  0
  3  4  2  3
  4  5  1  0
  5  6  2  3
  6  1  1  0
  5  7  1  0
  3  8  1  0
  8  9  2  3
  9 10  1  0
 10 11  2  3
 11 12  1  0
 12  8  1  0
 11 13  1  0
 13 14  2  3
 14 15  1  0
 15 16  2  3
 16 10  1  0
 16 17  1  0
 17 18  1  0
 18 19  2  3
 19 20  1  0
 20 21  2  3
 21 22  1  0
 22 23  2  3
 23 18  1  0
 22 24  1  0
M  END
> <smiles>
C1=CC(=CC(=C1)N)C2=CC3=C(N2)N=CN=C3OC4=CC=CC(=C4)O

> <facility_reagent_id>
HMSL10111

> <salt_id>
101

> <chemical_name>
TWS119

> <inchi>
InChI=1S/C18H14N4O2/c19-12-4-1-3-11(7-12)16-9-15-17(22-16)20-10-21-18(15)24-14-6-2-5-13(23)8-14/h1-10,23H,19H2,(H,20,21,22)

> <inchi_key>

> <chebi_id>

> <lincs_id>

> <pubchem_cid>
n/a

> <chembl_id>
n/a

> <molecular_mass>
318.33

> <molecular_formula>
C18H14N4O2

$$$$

  SciTegic08031211342D

 31 35  0  0  1  0            999 V2000
    0.0000    0.0000    0.0000 O   0  0
    0.0000    0.0000    0.0000 C   0  0
    0.0000    0.0000    0.0000 N   0  0
    0.0000    0.0000    0.0000 C   0  0
    0.0000    0.0000    0.0000 C   0  0
    0.0000    0.0000    0.0000 C   0  0
    0.0000    0.0000    0.0000 C   0  0
    0.0000    0.0000    0.0000 C   0  0
    0.0000    0.0000    0.0000 C   0  0
    0.0000    0.0000    0.0000 C   0  0
    0.0000    0.0000    0.0000 C   0  0
    0.0000    0.0000    0.0000 N   0  0
    0.0000    0.0000    0.0000 N   0  0
    0.0000    0.0000    0.0000 C   0  0
    0.0000    0.0000    0.0000 O   0  0
    0.0000    0.0000    0.0000 C   0  0
    0.0000    0.0000    0.0000 C   0  0
    0.0000    0.0000    0.0000 C   0  0
    0.0000    0.0000    0.0000 N   0  0
    0.0000    0.0000    0.0000 C   0  0
    0.0000    0.0000    0.0000 N   0  0
    0.0000    0.0000    0.0000 C   0  0
    0.0000    0.0000    0.0000 N   0  0
    0.0000    0.0000    0.0000 C   0  0  2  0  0  0
    0.0000    0.0000    0.0000 N   0  0
    0.0000    0.0000    0.0000 C   0  0
    0.0000    0.0000    0.0000 C   0  0
    0.0000    0.0000    0.0000 C   0  0
    0.0000    0.0000    0.0000 C   0  0
    0.0000    0.0000    0.0000 C   0  0
    0.0000    0.0000    0.0000 C   0  0
  1  2  2  0
  2  3  1  0
  3  4  1  0
  4  5  2  3
  5  6  1  0
  6  7  2  3
  7  8  1  0
  8  9  2  3
  9  4  1  0
  7 10  1  0
 10 11  1  0
 11 12  2  3
 12 13  1  0
 13 14  1  0
 14  8  1  0
 14 15  2  0
 10 16  2  3
 16 17  1  0
 17 18  2  3
 18 19  1  0
 19 20  1  0
 19 21  1  0
 21 22  2  3
 22 17  1  0
 16 23  1  0
 23  6  1  0
  2 24  1  0
 24 25  1  1
 24 26  1  0
 26 27  1  0
 27 28  1  0
 28 29  1  0
 29 30  1  0
 30 31  1  0
 31 26  1  0
M  END
> <smiles>
O=C(NC1=CC2=C(C3=C1)C(C=NNC3=O)=C(C4=CN(C)N=C4)N2)[C@H](N)C5CCCCC5

> <facility_reagent_id>
HMSL10112

> <salt_id>
101

> <chemical_name>
PF477736

> <inchi>
InChI=1S/C22H25N7O2/c1-29-11-13(9-25-29)20-16-10-24-28-21(30)15-7-14(8-17(27-20)18(15)16)26-22(31)19(23)12-5-3-2-4-6-12/h7-12,19,27H,2-6,23H2,1H3,(H,26,31)(H,28,30)/t19-/m1/s1

> <inchi_key>

> <chebi_id>

> <lincs_id>

> <pubchem_cid>
n/a

> <chembl_id>
n/a

> <molecular_mass>
419.48

> <molecular_formula>
C22H25N7O2

$$$$

  SciTegic08031211342D

 41 45  0  0  0  0            999 V2000
    0.0000    0.0000    0.0000 F   0  0
    0.0000    0.0000    0.0000 C   0  0
    0.0000    0.0000    0.0000 C   0  0
    0.0000    0.0000    0.0000 C   0  0
    0.0000    0.0000    0.0000 N   0  0
    0.0000    0.0000    0.0000 C   0  0
    0.0000    0.0000    0.0000 C   0  0
    0.0000    0.0000    0.0000 C   0  0
    0.0000    0.0000    0.0000 C   0  0
    0.0000    0.0000    0.0000 N   0  0
    0.0000    0.0000    0.0000 C   0  0
    0.0000    0.0000    0.0000 C   0  0
    0.0000    0.0000    0.0000 C   0  0
    0.0000    0.0000    0.0000 O   0  0
    0.0000    0.0000    0.0000 C   0  0
    0.0000    0.0000    0.0000 N   0  0
    0.0000    0.0000    0.0000 C   0  0
    0.0000    0.0000    0.0000 C   0  0
    0.0000    0.0000    0.0000 C   0  0
    0.0000    0.0000    0.0000 C   0  0
    0.0000    0.0000    0.0000 C   0  0
    0.0000    0.0000    0.0000 C   0  0
    0.0000    0.0000    0.0000 C   0  0
    0.0000    0.0000    0.0000 O   0  0
    0.0000    0.0000    0.0000 O   0  0
    0.0000    0.0000    0.0000 C   0  0
    0.0000    0.0000    0.0000 C   0  0
    0.0000    0.0000    0.0000 C   0  0
    0.0000    0.0000    0.0000 O   0  0
    0.0000    0.0000    0.0000 C   0  0
    0.0000    0.0000    0.0000 C   0  0
    0.0000    0.0000    0.0000 C   0  0
    0.0000    0.0000    0.0000 N   0  0
    0.0000    0.0000    0.0000 C   0  0
    0.0000    0.0000    0.0000 C   0  0
    0.0000    0.0000    0.0000 C   0  0
    0.0000    0.0000    0.0000 C   0  0
    0.0000    0.0000    0.0000 C   0  0
    0.0000    0.0000    0.0000 O   0  0
    0.0000    0.0000    0.0000 C   0  0
    0.0000    0.0000    0.0000 C   0  0
  1  2  1  0
  2  3  2  3
  3  4  1  0
  4  5  1  0
  5  6  1  0
  6  7  1  0
  7  8  2  3
  8  9  1  0
  8 10  1  0
 10 11  1  0
 11 12  1  0
 12 13  1  0
 12 14  1  0
 12 15  1  0
 10 16  1  0
 16 17  1  0
 17 18  2  3
 18 19  1  0
 19 20  2  3
 20 21  1  0
 21 22  2  3
 22 17  1  0
 16 23  1  0
 23  7  1  0
 23 24  2  0
  6 25  2  0
  4 26  2  3
 26 27  1  0
 27 28  2  3
 28  2  1  0
 28 29  1  0
 29 30  1  0
 30 31  2  3
 31 32  1  0
 32 33  2  3
 33 34  1  0
 34 35  2  3
 35 30  1  0
 35 36  1  0
 36 37  2  3
 37 38  1  0
 38 39  1  0
 39 40  1  0
 38 41  2  3
 41 34  1  0
M  END
> <smiles>
FC1=CC(NC(C2=C(C)N(CC(C)(O)C)N(C3=CC=CC=C3)C2=O)=O)=CC=C1OC4=CC=NC5=C4C=CC(OC)=C5

> <facility_reagent_id>
HMSL10113

> <salt_id>
101

> <chemical_name>
Kin237; Kin001-237; c-Met/Ron dual kinase inhibitor

> <inchi>
InChI=1S/C31H29FN4O5/c1-19-28(30(38)36(21-8-6-5-7-9-21)35(19)18-31(2,3)39)29(37)34-20-10-13-27(24(32)16-20)41-26-14-15-33-25-17-22(40-4)11-12-23(25)26/h5-17,39H,18H2,1-4H3,(H,34,37)

> <inchi_key>

> <chebi_id>

> <lincs_id>

> <pubchem_cid>
n/a

> <chembl_id>
n/a

> <molecular_mass>
556.58

> <molecular_formula>
C31H29FN4O5

$$$$

  SciTegic08031211342D

 32 34  0  0  0  0            999 V2000
    0.0000    0.0000    0.0000 O   0  0
    0.0000    0.0000    0.0000 S   0  0
    0.0000    0.0000    0.0000 C   0  0
    0.0000    0.0000    0.0000 C   0  0
    0.0000    0.0000    0.0000 C   0  0
    0.0000    0.0000    0.0000 N   0  0
    0.0000    0.0000    0.0000 C   0  0
    0.0000    0.0000    0.0000 N   0  0
    0.0000    0.0000    0.0000 C   0  0
    0.0000    0.0000    0.0000 C   0  0
    0.0000    0.0000    0.0000 C   0  0
    0.0000    0.0000    0.0000 N   0  0
    0.0000    0.0000    0.0000 C   0  0
    0.0000    0.0000    0.0000 C   0  0
    0.0000    0.0000    0.0000 C   0  0
    0.0000    0.0000    0.0000 C   0  0
    0.0000    0.0000    0.0000 N   0  0
    0.0000    0.0000    0.0000 N   0  0
    0.0000    0.0000    0.0000 C   0  0
    0.0000    0.0000    0.0000 C   0  0
    0.0000    0.0000    0.0000 C   0  0
    0.0000    0.0000    0.0000 C   0  0
    0.0000    0.0000    0.0000 C   0  0
    0.0000    0.0000    0.0000 C   0  0
    0.0000    0.0000    0.0000 N   0  0
    0.0000    0.0000    0.0000 C   0  0
    0.0000    0.0000    0.0000 C   0  0
    0.0000    0.0000    0.0000 C   0  0
    0.0000    0.0000    0.0000 C   0  0
    0.0000    0.0000    0.0000 N   0  0
    0.0000    0.0000    0.0000 O   0  0
    0.0000    0.0000    0.0000 Cl  0  0
  1  2  2  0
  2  3  1  0
  3  4  2  3
  4  5  1  0
  5  6  1  0
  6  7  1  0
  7  8  2  3
  8  9  1  0
  9 10  2  3
 10 11  1  0
 11 12  1  0
 12 13  1  0
 12 14  1  0
 14 15  2  3
 15 16  1  0
 16 17  2  3
 17 18  1  0
 18 19  1  0
 19 20  1  0
 19 21  2  3
 21 16  1  0
 21 22  1  0
 22 23  2  3
 23 14  1  0
 18 24  1  0
 11 25  2  3
 25  7  1  0
  5 26  2  3
 26 27  1  0
 27 28  2  3
 28  3  1  0
 28 29  1  0
  2 30  1  0
  2 31  2  0
M  END
> <smiles>
O=S(C1=CC(NC2=NC=CC(N(C)C3=CC4=NN(C(C)=C4C=C3)C)=N2)=CC=C1C)(N)=O.Cl

> <facility_reagent_id>
HMSL10114

> <salt_id>
101

> <chemical_name>
GW786034; Pazopanib hydrochloride

> <inchi>
InChI=1S/C21H23N7O2S.ClH/c1-13-5-6-15(11-19(13)31(22,29)30)24-21-23-10-9-20(25-21)27(3)16-7-8-17-14(2)28(4)26-18(17)12-16;/h5-12H,1-4H3,(H2,22,29,30)(H,23,24,25);1H

> <inchi_key>

> <chebi_id>

> <lincs_id>

> <pubchem_cid>
n/a

> <chembl_id>
n/a

> <molecular_mass>
473.98

> <molecular_formula>
C21H24ClN7O2S

$$$$

  SciTegic08031211342D

 32 36  0  0  0  0            999 V2000
    0.0000    0.0000    0.0000 N   0  0
    0.0000    0.0000    0.0000 C   0  0
    0.0000    0.0000    0.0000 C   0  0
    0.0000    0.0000    0.0000 C   0  0
    0.0000    0.0000    0.0000 C   0  0
    0.0000    0.0000    0.0000 C   0  0
    0.0000    0.0000    0.0000 C   0  0
    0.0000    0.0000    0.0000 N   0  0
    0.0000    0.0000    0.0000 C   0  0
    0.0000    0.0000    0.0000 N   0  0
    0.0000    0.0000    0.0000 C   0  0
    0.0000    0.0000    0.0000 C   0  0
    0.0000    0.0000    0.0000 C   0  0
    0.0000    0.0000    0.0000 C   0  0
    0.0000    0.0000    0.0000 C   0  0
    0.0000    0.0000    0.0000 N   0  0
    0.0000    0.0000    0.0000 C   0  0
    0.0000    0.0000    0.0000 C   0  0
    0.0000    0.0000    0.0000 C   0  0
    0.0000    0.0000    0.0000 C   0  0
    0.0000    0.0000    0.0000 C   0  0
    0.0000    0.0000    0.0000 C   0  0
    0.0000    0.0000    0.0000 C   0  0
    0.0000    0.0000    0.0000 N   0  0
    0.0000    0.0000    0.0000 C   0  0
    0.0000    0.0000    0.0000 C   0  0
    0.0000    0.0000    0.0000 C   0  0
    0.0000    0.0000    0.0000 C   0  0
    0.0000    0.0000    0.0000 N   0  0
    0.0000    0.0000    0.0000 C   0  0
    0.0000    0.0000    0.0000 C   0  0
    0.0000    0.0000    0.0000 Cl  0  0
  1  2  1  0
  2  3  2  3
  3  4  1  0
  4  5  2  3
  5  6  1  0
  6  7  2  3
  7  8  1  0
  8  9  1  0
  9 10  1  0
 10 11  2  3
 11  6  1  0
  9 12  2  3
 12 13  1  0
 13 14  2  3
 14 15  1  0
 15 16  2  3
 16 17  1  0
 17 18  2  3
 18 19  1  0
 19 20  2  3
 20 21  1  0
 21 22  2  3
 22 13  1  0
 22 17  1  0
 12 23  1  0
 23 24  2  3
 24  8  1  0
  5 25  1  0
 25 26  2  3
 26  2  1  0
  1 27  1  0
 27 28  1  0
 28 29  1  0
 29 30  1  0
 30 31  1  0
 31  1  1  0
M  END
> <smiles>
N1(C2=CC=C(C3=CN4C(N=C3)=C(C5=CC=NC6=CC=CC=C56)C=N4)C=C2)CCNCC1.Cl

> <facility_reagent_id>
HMSL10115

> <salt_id>
101

> <chemical_name>
LDN-193189; DM 3189

> <inchi>
InChI=1S/C25H22N6.ClH/c1-2-4-24-22(3-1)21(9-10-27-24)23-16-29-31-17-19(15-28-25(23)31)18-5-7-20(8-6-18)30-13-11-26-12-14-30;/h1-10,15-17,26H,11-14H2;1H

> <inchi_key>

> <chebi_id>

> <lincs_id>

> <pubchem_cid>
n/a

> <chembl_id>
n/a

> <molecular_mass>
442.94

> <molecular_formula>
C25H23ClN6

$$$$

  SciTegic08031211342D

 35 38  0  0  0  0            999 V2000
    0.0000    0.0000    0.0000 C   0  0
    0.0000    0.0000    0.0000 N   0  0
    0.0000    0.0000    0.0000 C   0  0
    0.0000    0.0000    0.0000 C   0  0
    0.0000    0.0000    0.0000 C   0  0
    0.0000    0.0000    0.0000 C   0  0
    0.0000    0.0000    0.0000 C   0  0
    0.0000    0.0000    0.0000 C   0  0
    0.0000    0.0000    0.0000 C   0  0
    0.0000    0.0000    0.0000 N   0  0
    0.0000    0.0000    0.0000 C   0  0
    0.0000    0.0000    0.0000 N   0  0
    0.0000    0.0000    0.0000 C   0  0
    0.0000    0.0000    0.0000 N   0  0
    0.0000    0.0000    0.0000 C   0  0
    0.0000    0.0000    0.0000 C   0  0
    0.0000    0.0000    0.0000 C   0  0
    0.0000    0.0000    0.0000 F   0  0
    0.0000    0.0000    0.0000 F   0  0
    0.0000    0.0000    0.0000 F   0  0
    0.0000    0.0000    0.0000 N   0  0
    0.0000    0.0000    0.0000 C   0  0
    0.0000    0.0000    0.0000 C   0  0
    0.0000    0.0000    0.0000 C   0  0
    0.0000    0.0000    0.0000 C   0  0
    0.0000    0.0000    0.0000 C   0  0
    0.0000    0.0000    0.0000 C   0  0
    0.0000    0.0000    0.0000 N   0  0
    0.0000    0.0000    0.0000 C   0  0
    0.0000    0.0000    0.0000 O   0  0
    0.0000    0.0000    0.0000 C   0  0
    0.0000    0.0000    0.0000 S   0  0
    0.0000    0.0000    0.0000 O   0  0
    0.0000    0.0000    0.0000 O   0  0
    0.0000    0.0000    0.0000 C   0  0
  1  2  1  0
  2  3  1  0
  3  4  2  3
  4  5  1  0
  5  6  2  3
  6  7  1  0
  7  8  2  3
  8  3  1  0
  8  9  1  0
  9 10  1  0
 10 11  1  0
 11 12  2  3
 12 13  1  0
 13 14  2  3
 14 15  1  0
 15 16  2  3
 16 11  1  0
 16 17  1  0
 17 18  1  0
 17 19  1  0
 17 20  1  0
 13 21  1  0
 21 22  1  0
 22 23  2  3
 23 24  1  0
 24 25  2  3
 25 26  1  0
 26 27  2  3
 27 22  1  0
 25 28  1  0
 28 29  1  0
 29 30  2  0
 29 31  1  0
 31 24  1  0
  2 32  1  0
 32 33  2  0
 32 34  2  0
 32 35  1  0
M  END
> <smiles>
CN(C1=CC=CC=C1CNC2=NC(=NC=C2C(F)(F)F)NC3=CC4=C(C=C3)NC(=O)C4)S(=O)(=O)C

> <facility_reagent_id>
HMSL10116

> <salt_id>
101

> <chemical_name>
PF431396

> <inchi>
InChI=1S/C22H21F3N6O3S/c1-31(35(2,33)34)18-6-4-3-5-13(18)11-26-20-16(22(23,24)25)12-27-21(30-20)28-15-7-8-17-14(9-15)10-19(32)29-17/h3-9,12H,10-11H2,1-2H3,(H,29,32)(H2,26,27,28,30)

> <inchi_key>

> <chebi_id>

> <lincs_id>

> <pubchem_cid>
n/a

> <chembl_id>
n/a

> <molecular_mass>
506.5

> <molecular_formula>
C22H21F3N6O3S

$$$$

  SciTegic08031211342D

 33 37  0  0  1  0            999 V2000
    0.0000    0.0000    0.0000 O   0  0
    0.0000    0.0000    0.0000 C   0  0
    0.0000    0.0000    0.0000 C   0  0
    0.0000    0.0000    0.0000 C   0  0
    0.0000    0.0000    0.0000 C   0  0
    0.0000    0.0000    0.0000 C   0  0
    0.0000    0.0000    0.0000 C   0  0
    0.0000    0.0000    0.0000 C   0  0
    0.0000    0.0000    0.0000 O   0  0
    0.0000    0.0000    0.0000 C   0  0
    0.0000    0.0000    0.0000 C   0  0
    0.0000    0.0000    0.0000 C   0  0
    0.0000    0.0000    0.0000 C   0  0  1  0  0  0
    0.0000    0.0000    0.0000 C   0  0
    0.0000    0.0000    0.0000 C   0  0
    0.0000    0.0000    0.0000 C   0  0
    0.0000    0.0000    0.0000 C   0  0  2  0  0  0
    0.0000    0.0000    0.0000 C   0  0
    0.0000    0.0000    0.0000 C   0  0  1  0  0  0
    0.0000    0.0000    0.0000 C   0  0
    0.0000    0.0000    0.0000 C   0  0
    0.0000    0.0000    0.0000 C   0  0  2  0  0  0
    0.0000    0.0000    0.0000 C   0  0
    0.0000    0.0000    0.0000 C   0  0
    0.0000    0.0000    0.0000 C   0  0  2  0  0  0
    0.0000    0.0000    0.0000 C   0  0
    0.0000    0.0000    0.0000 C   0  0
    0.0000    0.0000    0.0000 C   0  0
    0.0000    0.0000    0.0000 O   0  0
    0.0000    0.0000    0.0000 O   0  0
    0.0000    0.0000    0.0000 C   0  0
    0.0000    0.0000    0.0000 C   0  0
    0.0000    0.0000    0.0000 C   0  0
  1  2  2  0
  2  3  1  0
  3  4  2  3
  4  5  1  0
  5  6  1  0
  6  7  1  0
  6  8  2  3
  8  2  1  0
  8  9  1  0
  5 10  2  3
 10 11  1  0
 11 12  2  3
 12 13  1  0
 13  4  1  0
 13 14  1  0
 14 15  1  0
 15 16  1  0
 16 17  1  0
 17 18  1  1
 18 19  1  0
 19 20  1  0
 20 21  1  0
 21 22  1  0
 22 17  1  0
 22 23  1  0
 23 24  1  0
 24 25  1  0
 25 12  1  0
 25 16  1  0
 25 26  1  1
 22 27  1  1
 19 28  1  0
 28 29  1  6
 28 30  2  0
 19 31  1  1
 16 32  1  0
 13 33  1  1
M  END
> <smiles>
O=C1C=C2C(C(C)=C1O)=CC=C3[C@]2(CCC4([C@@H]5C[C@@](CC[C@@]5(CC[C@]34C)C)([C@@](O)=O)C)C)C

> <facility_reagent_id>
HMSL10117

> <salt_id>
101

> <chemical_name>
Celastrol

> <inchi>
InChI=1S/C29H38O4/c1-17-18-7-8-21-27(4,19(18)15-20(30)23(17)31)12-14-29(6)22-16-26(3,24(32)33)10-9-25(22,2)11-13-28(21,29)5/h7-8,15,22,31H,9-14,16H2,1-6H3,(H,32,33)/t22-,25-,26-,27+,28-,29?/m1/s1

> <inchi_key>

> <chebi_id>

> <lincs_id>

> <pubchem_cid>
n/a

> <chembl_id>
n/a

> <molecular_mass>
450.61

> <molecular_formula>
C29H38O4

$$$$

  SciTegic08031211342D

 32 37  0  0  0  0            999 V2000
    0.0000    0.0000    0.0000 S   0  0
    0.0000    0.0000    0.0000 C   0  0
    0.0000    0.0000    0.0000 N   0  0
    0.0000    0.0000    0.0000 C   0  0
    0.0000    0.0000    0.0000 C   0  0
    0.0000    0.0000    0.0000 C   0  0
    0.0000    0.0000    0.0000 C   0  0
    0.0000    0.0000    0.0000 C   0  0
    0.0000    0.0000    0.0000 O   0  0
    0.0000    0.0000    0.0000 C   0  0
    0.0000    0.0000    0.0000 O   0  0
    0.0000    0.0000    0.0000 C   0  0
    0.0000    0.0000    0.0000 C   0  0
    0.0000    0.0000    0.0000 N   0  0
    0.0000    0.0000    0.0000 C   0  0
    0.0000    0.0000    0.0000 C   0  0
    0.0000    0.0000    0.0000 N   0  0
    0.0000    0.0000    0.0000 C   0  0
    0.0000    0.0000    0.0000 C   0  0
    0.0000    0.0000    0.0000 C   0  0
    0.0000    0.0000    0.0000 C   0  0
    0.0000    0.0000    0.0000 O   0  0
    0.0000    0.0000    0.0000 C   0  0
    0.0000    0.0000    0.0000 C   0  0
    0.0000    0.0000    0.0000 C   0  0
    0.0000    0.0000    0.0000 C   0  0
    0.0000    0.0000    0.0000 C   0  0
    0.0000    0.0000    0.0000 C   0  0
    0.0000    0.0000    0.0000 C   0  0
    0.0000    0.0000    0.0000 N   0  0
    0.0000    0.0000    0.0000 C   0  0
    0.0000    0.0000    0.0000 N   0  0
  1  2  2  0
  2  3  1  0
  3  4  1  0
  4  5  1  0
  5  6  2  3
  6  7  1  0
  7  8  2  3
  8  9  1  0
  9 10  1  0
 10 11  1  0
 11 12  1  0
 12  8  1  0
 12 13  2  3
 13  5  1  0
  2 14  1  0
 14 15  1  0
 15 16  1  0
 16 17  1  0
 17 18  1  0
 18 19  1  0
 19 14  1  0
 17 20  1  0
 20 21  2  3
 21 22  1  0
 22 23  1  0
 23 24  2  3
 24 25  1  0
 25 26  2  3
 26 27  1  0
 27 28  2  3
 28 23  1  0
 28 29  1  0
 29 21  1  0
 29 30  2  3
 30 31  1  0
 31 32  2  3
 32 20  1  0
M  END
> <smiles>
S=C(NCC1=CC=C2OCOC2=C1)N3CCN(CC3)C4=C5OC6=CC=CC=C6C5=NC=N4

> <facility_reagent_id>
HMSL10118

> <salt_id>
101

> <chemical_name>
MP470; Amuvatinib

> <inchi>
InChI=1S/C23H21N5O3S/c32-23(24-12-15-5-6-18-19(11-15)30-14-29-18)28-9-7-27(8-10-28)22-21-20(25-13-26-22)16-3-1-2-4-17(16)31-21/h1-6,11,13H,7-10,12,14H2,(H,24,32)

> <inchi_key>

> <chebi_id>

> <lincs_id>

> <pubchem_cid>
n/a

> <chembl_id>
n/a

> <molecular_mass>
447.51

> <molecular_formula>
C23H21N5O3S

$$$$

  SciTegic08031211342D

 39 43  0  0  0  0            999 V2000
    0.0000    0.0000    0.0000 O   0  0
    0.0000    0.0000    0.0000 S   0  0
    0.0000    0.0000    0.0000 C   0  0
    0.0000    0.0000    0.0000 C   0  0
    0.0000    0.0000    0.0000 C   0  0
    0.0000    0.0000    0.0000 C   0  0
    0.0000    0.0000    0.0000 N   0  0
    0.0000    0.0000    0.0000 C   0  0
    0.0000    0.0000    0.0000 C   0  0
    0.0000    0.0000    0.0000 C   0  0
    0.0000    0.0000    0.0000 C   0  0
    0.0000    0.0000    0.0000 C   0  0
    0.0000    0.0000    0.0000 C   0  0
    0.0000    0.0000    0.0000 C   0  0
    0.0000    0.0000    0.0000 C   0  0
    0.0000    0.0000    0.0000 N   0  0
    0.0000    0.0000    0.0000 C   0  0
    0.0000    0.0000    0.0000 C   0  0
    0.0000    0.0000    0.0000 N   0  0
    0.0000    0.0000    0.0000 C   0  0
    0.0000    0.0000    0.0000 C   0  0
    0.0000    0.0000    0.0000 C   0  0
    0.0000    0.0000    0.0000 O   0  0
    0.0000    0.0000    0.0000 C   0  0
    0.0000    0.0000    0.0000 C   0  0
    0.0000    0.0000    0.0000 N   0  0
    0.0000    0.0000    0.0000 O   0  0
    0.0000    0.0000    0.0000 C   0  0
    0.0000    0.0000    0.0000 C   0  0
    0.0000    0.0000    0.0000 N   0  0
    0.0000    0.0000    0.0000 C   0  0
    0.0000    0.0000    0.0000 C   0  0
    0.0000    0.0000    0.0000 C   0  0
    0.0000    0.0000    0.0000 C   0  0
    0.0000    0.0000    0.0000 C   0  0
    0.0000    0.0000    0.0000 Cl  0  0
    0.0000    0.0000    0.0000 C   0  0
    0.0000    0.0000    0.0000 C   0  0
    0.0000    0.0000    0.0000 O   0  0
  1  2  2  0
  2  3  1  0
  3  4  2  3
  4  5  1  0
  5  6  2  3
  6  7  1  0
  7  8  1  0
  8  9  1  0
  9  5  1  0
  9 10  2  3
 10 11  1  0
 11 12  2  3
 12 13  1  0
 12 14  1  0
 14 15  1  0
 15 16  1  0
 16 17  1  0
 17 18  1  0
 18 19  1  0
 19 20  1  0
 19 21  1  0
 21 22  1  0
 22 16  1  0
 15 23  2  0
 14 24  2  3
 24 25  1  0
 24 26  1  0
 26 11  1  0
  8 27  2  0
  6 28  1  0
 28 29  2  3
 29  3  1  0
  2 30  1  0
 30 31  1  0
 31 32  2  3
 32 33  1  0
 33 34  2  3
 34 35  1  0
 35 36  1  0
 35 37  2  3
 37 31  1  0
 30 38  1  0
  2 39  2  0
M  END
> <smiles>
O=S(C1=CC2=C(NC(/C2=C/C3=C(C)C(C(N4CCN(C)CC4)=O)=C(C)N3)=O)C=C1)(N(C5=CC=CC(Cl)=C5)C)=O

> <facility_reagent_id>
HMSL10119

> <salt_id>
101

> <chemical_name>
SU11274; PKI-SU11274

> <inchi>
InChI=1S/C28H30ClN5O4S/c1-17-25(30-18(2)26(17)28(36)34-12-10-32(3)11-13-34)16-23-22-15-21(8-9-24(22)31-27(23)35)39(37,38)33(4)20-7-5-6-19(29)14-20/h5-9,14-16,30H,10-13H2,1-4H3,(H,31,35)/b23-16+

> <inchi_key>

> <chebi_id>

> <lincs_id>

> <pubchem_cid>
n/a

> <chembl_id>
n/a

> <molecular_mass>
568.09

> <molecular_formula>
C28H30ClN5O4S

$$$$

  SciTegic08031211342D

 38 39  0  0  0  0            999 V2000
    0.0000    0.0000    0.0000 Cl  0  0
    0.0000    0.0000    0.0000 H   0  0
    0.0000    0.0000    0.0000 Cl  0  0
    0.0000    0.0000    0.0000 H   0  0
    0.0000    0.0000    0.0000 F   0  0
    0.0000    0.0000    0.0000 C   0  0
    0.0000    0.0000    0.0000 C   0  0
    0.0000    0.0000    0.0000 Cl  0  0
    0.0000    0.0000    0.0000 C   0  0
    0.0000    0.0000    0.0000 C   0  0
    0.0000    0.0000    0.0000 N   0  0
    0.0000    0.0000    0.0000 C   0  0
    0.0000    0.0000    0.0000 N   0  0
    0.0000    0.0000    0.0000 C   0  0
    0.0000    0.0000    0.0000 N   0  0
    0.0000    0.0000    0.0000 C   0  0
    0.0000    0.0000    0.0000 C   0  0
    0.0000    0.0000    0.0000 C   0  0
    0.0000    0.0000    0.0000 C   0  0
    0.0000    0.0000    0.0000 N   0  0
    0.0000    0.0000    0.0000 C   0  0
    0.0000    0.0000    0.0000 O   0  0
    0.0000    0.0000    0.0000 C   0  0
    0.0000    0.0000    0.0000 C   0  0
    0.0000    0.0000    0.0000 C   0  0
    0.0000    0.0000    0.0000 O   0  0
    0.0000    0.0000    0.0000 C   0  0
    0.0000    0.0000    0.0000 C   0  0
    0.0000    0.0000    0.0000 C   0  0
    0.0000    0.0000    0.0000 N   0  0
    0.0000    0.0000    0.0000 C   0  0
    0.0000    0.0000    0.0000 C   0  0
    0.0000    0.0000    0.0000 O   0  0
    0.0000    0.0000    0.0000 C   0  0
    0.0000    0.0000    0.0000 C   0  0
    0.0000    0.0000    0.0000 C   0  0
    0.0000    0.0000    0.0000 C   0  0
    0.0000    0.0000    0.0000 C   0  0
  1  2  1  0
  3  4  1  0
  5  6  1  0
  6  7  2  3
  7  8  1  0
  7  9  1  0
  9 10  2  3
 10 11  1  0
 11 12  1  0
 12 13  2  3
 13 14  1  0
 14 15  2  3
 15 16  1  0
 16 17  2  3
 17 12  1  0
 17 18  1  0
 18 19  2  3
 19 20  1  0
 20 21  1  0
 21 22  2  0
 21 23  1  0
 23 24  2  0
 19 25  1  0
 25 26  1  0
 26 27  1  0
 27 28  1  0
 28 29  1  0
 29 30  1  0
 30 31  1  0
 31 32  1  0
 32 33  1  0
 33 34  1  0
 34 35  1  0
 35 30  1  0
 25 36  2  3
 36 16  1  0
 10 37  1  0
 37 38  2  3
 38  6  1  0
M  END
> <smiles>
Cl[H].Cl[H].FC1=C(Cl)C=C(NC2=NC=NC3=C2C=C(NC(=O)C=C)C(OCCCN2CCOCC2)=C3)C=C1

> <facility_reagent_id>
HMSL10120

> <salt_id>
101

> <chemical_name>
CI-1033; Canertinib; PD-183805

> <inchi>
InChI=1S/C24H25ClFN5O3.2ClH/c1-2-23(32)30-21-13-17-20(14-22(21)34-9-3-6-31-7-10-33-11-8-31)27-15-28-24(17)29-16-4-5-19(26)18(25)12-16;;/h2,4-5,12-15H,1,3,6-11H2,(H,30,32)(H,27,28,29);2*1H

> <inchi_key>

> <chebi_id>

> <lincs_id>

> <pubchem_cid>
n/a

> <chembl_id>
n/a

> <molecular_mass>
558.86

> <molecular_formula>
C24H27Cl3FN5O3

$$$$

  SciTegic08031211342D

 26 29  0  0  0  0            999 V2000
    0.0000    0.0000    0.0000 C   0  0
    0.0000    0.0000    0.0000 C   0  0
    0.0000    0.0000    0.0000 C   0  0
    0.0000    0.0000    0.0000 C   0  0
    0.0000    0.0000    0.0000 C   0  0
    0.0000    0.0000    0.0000 N   0  0
    0.0000    0.0000    0.0000 C   0  0
    0.0000    0.0000    0.0000 C   0  0
    0.0000    0.0000    0.0000 C   0  0
    0.0000    0.0000    0.0000 C   0  0
    0.0000    0.0000    0.0000 C   0  0
    0.0000    0.0000    0.0000 C   0  0
    0.0000    0.0000    0.0000 C   0  0
    0.0000    0.0000    0.0000 N   0  0
    0.0000    0.0000    0.0000 C   0  0
    0.0000    0.0000    0.0000 N   0  0
    0.0000    0.0000    0.0000 C   0  0
    0.0000    0.0000    0.0000 C   0  0
    0.0000    0.0000    0.0000 C   0  0
    0.0000    0.0000    0.0000 C   0  0
    0.0000    0.0000    0.0000 N   0  0
    0.0000    0.0000    0.0000 C   0  0
    0.0000    0.0000    0.0000 C   0  0
    0.0000    0.0000    0.0000 N   0  0
    0.0000    0.0000    0.0000 C   0  0
    0.0000    0.0000    0.0000 C   0  0
  1  2  1  0
  2  3  1  0
  2  4  1  0
  2  5  1  0
  5  6  2  3
  6  7  1  0
  7  8  1  0
  8  9  2  3
  9 10  1  0
 10 11  2  3
 11 12  1  0
 12 13  1  0
 12 14  2  3
 14  8  1  0
  7 15  2  3
 15 16  1  0
 16  5  1  0
 15 17  1  0
 17 18  2  3
 18 19  1  0
 19 20  2  3
 20 21  1  0
 21 22  2  3
 22 23  1  0
 23 24  2  3
 20 25  1  0
 25 24  1  0
 25 26  2  3
 26 17  1  0
M  END
> <smiles>
CC(C)(C)C1=NC(C2=CC=CC(C)=N2)=C(N1)C3=CC=C(N=CC=N4)C4=C3

> <facility_reagent_id>
HMSL10121

> <salt_id>
101

> <chemical_name>
SB525334

> <inchi>
InChI=1S/C21H21N5/c1-13-6-5-7-16(24-13)19-18(25-20(26-19)21(2,3)4)14-8-9-15-17(12-14)23-11-10-22-15/h5-12H,1-4H3,(H,25,26)

> <inchi_key>

> <chebi_id>

> <lincs_id>

> <pubchem_cid>
n/a

> <chembl_id>
n/a

> <molecular_mass>
343.42

> <molecular_formula>
C21H21N5

$$$$

  SciTegic08031211342D

 33 38  0  0  1  0            999 V2000
    0.0000    0.0000    0.0000 N   0  0
    0.0000    0.0000    0.0000 C   0  0
    0.0000    0.0000    0.0000 C   0  0
    0.0000    0.0000    0.0000 C   0  0
    0.0000    0.0000    0.0000 N   0  0
    0.0000    0.0000    0.0000 C   0  0
    0.0000    0.0000    0.0000 C   0  0
    0.0000    0.0000    0.0000 C   0  0
    0.0000    0.0000    0.0000 C   0  0
    0.0000    0.0000    0.0000 C   0  0
    0.0000    0.0000    0.0000 C   0  0
    0.0000    0.0000    0.0000 C   0  0
    0.0000    0.0000    0.0000 C   0  0
    0.0000    0.0000    0.0000 O   0  0
    0.0000    0.0000    0.0000 C   0  0
    0.0000    0.0000    0.0000 C   0  0
    0.0000    0.0000    0.0000 C   0  0
    0.0000    0.0000    0.0000 C   0  0
    0.0000    0.0000    0.0000 C   0  0
    0.0000    0.0000    0.0000 C   0  0
    0.0000    0.0000    0.0000 C   0  0
    0.0000    0.0000    0.0000 C   0  0  1  0  0  0
    0.0000    0.0000    0.0000 C   0  0
    0.0000    0.0000    0.0000 C   0  0  1  0  0  0
    0.0000    0.0000    0.0000 C   0  0
    0.0000    0.0000    0.0000 C   0  0
    0.0000    0.0000    0.0000 N   0  0
    0.0000    0.0000    0.0000 C   0  0
    0.0000    0.0000    0.0000 C   0  0
    0.0000    0.0000    0.0000 C   0  0
    0.0000    0.0000    0.0000 N   0  0
    0.0000    0.0000    0.0000 C   0  0
    0.0000    0.0000    0.0000 N   0  0
  1  2  1  0
  2  3  2  3
  3  4  1  0
  4  5  1  0
  5  6  1  0
  6  7  2  3
  7  3  1  0
  7  8  1  0
  8  9  2  3
  9 10  1  0
 10 11  2  3
 11 12  1  0
 12 13  2  3
 13  8  1  0
 11 14  1  0
 14 15  1  0
 15 16  1  0
 16 17  2  3
 17 18  1  0
 18 19  2  3
 19 20  1  0
 20 21  2  3
 21 16  1  0
 22  5  1  1
 22 23  1  0
 23 24  1  0
 24 25  1  0
 25 22  1  0
 24 26  1  1
 26 27  1  0
 27 28  1  0
 28 29  1  0
 29 30  1  0
 30 27  1  0
  4 31  2  3
 31 32  1  0
 32 33  2  3
 33  2  1  0
M  END
> <smiles>
NC1=C2C(N(C=C2C3=CC=C(C=C3)OCC4=CC=CC=C4)[C@H]5C[C@@H](C5)CN6CCC6)=NC=N1

> <facility_reagent_id>
HMSL10122

> <salt_id>
101

> <chemical_name>
NVP-AEW541; AEW541

> <inchi>
InChI=1S/C27H29N5O/c28-26-25-24(21-7-9-23(10-8-21)33-17-19-5-2-1-3-6-19)16-32(27(25)30-18-29-26)22-13-20(14-22)15-31-11-4-12-31/h1-3,5-10,16,18,20,22H,4,11-15,17H2,(H2,28,29,30)/t20-,22-

> <inchi_key>

> <chebi_id>

> <lincs_id>

> <pubchem_cid>
n/a

> <chembl_id>
n/a

> <molecular_mass>
439.55

> <molecular_formula>
C27H29N5O

$$$$

  SciTegic08031211342D

 26 30  0  0  0  0            999 V2000
    0.0000    0.0000    0.0000 C   0  0
    0.0000    0.0000    0.0000 N   0  0
    0.0000    0.0000    0.0000 N   0  0
    0.0000    0.0000    0.0000 C   0  0
    0.0000    0.0000    0.0000 C   0  0
    0.0000    0.0000    0.0000 C   0  0
    0.0000    0.0000    0.0000 N   0  0
    0.0000    0.0000    0.0000 N   0  0
    0.0000    0.0000    0.0000 C   0  0
    0.0000    0.0000    0.0000 C   0  0
    0.0000    0.0000    0.0000 C   0  0
    0.0000    0.0000    0.0000 N   0  0
    0.0000    0.0000    0.0000 N   0  0
    0.0000    0.0000    0.0000 C   0  0
    0.0000    0.0000    0.0000 S   0  0
    0.0000    0.0000    0.0000 C   0  0
    0.0000    0.0000    0.0000 C   0  0
    0.0000    0.0000    0.0000 C   0  0
    0.0000    0.0000    0.0000 C   0  0
    0.0000    0.0000    0.0000 C   0  0
    0.0000    0.0000    0.0000 C   0  0
    0.0000    0.0000    0.0000 N   0  0
    0.0000    0.0000    0.0000 C   0  0
    0.0000    0.0000    0.0000 C   0  0
    0.0000    0.0000    0.0000 C   0  0
    0.0000    0.0000    0.0000 C   0  0
  1  2  1  0
  2  3  1  0
  3  4  2  3
  4  5  1  0
  5  6  1  0
  6  7  2  3
  7  8  1  0
  8  9  1  0
  9 10  1  0
 10 11  2  3
 11  6  1  0
  9 12  2  3
 12 13  1  0
 13 14  2  3
 14  8  1  0
 14 15  1  0
 15 16  1  0
 16 17  2  3
 17 18  1  0
 18 19  2  3
 19 20  1  0
 20 21  2  3
 21 22  1  0
 22 23  2  3
 23 18  1  0
 23 24  1  0
 24 25  2  3
 25 16  1  0
  5 26  2  3
 26  2  1  0
M  END
> <smiles>
CN1N=CC(C2=NN3C(C=C2)=NN=C3SC4=CC5=CC=CN=C5C=C4)=C1

> <facility_reagent_id>
HMSL10123

> <salt_id>
101

> <chemical_name>
SGX523

> <inchi>
InChI=1S/C18H13N7S/c1-24-11-13(10-20-24)16-6-7-17-21-22-18(25(17)23-16)26-14-4-5-15-12(9-14)3-2-8-19-15/h2-11H,1H3

> <inchi_key>

> <chebi_id>

> <lincs_id>

> <pubchem_cid>
n/a

> <chembl_id>
n/a

> <molecular_mass>
359.41

> <molecular_formula>
C18H13N7S

$$$$

  SciTegic08031211342D

 36 40  0  0  0  0            999 V2000
    0.0000    0.0000    0.0000 O   0  0
    0.0000    0.0000    0.0000 C   0  0
    0.0000    0.0000    0.0000 N   0  0
    0.0000    0.0000    0.0000 C   0  0
    0.0000    0.0000    0.0000 N   0  0
    0.0000    0.0000    0.0000 C   0  0
    0.0000    0.0000    0.0000 C   0  0
    0.0000    0.0000    0.0000 C   0  0
    0.0000    0.0000    0.0000 C   0  0
    0.0000    0.0000    0.0000 O   0  0
    0.0000    0.0000    0.0000 C   0  0
    0.0000    0.0000    0.0000 C   0  0
    0.0000    0.0000    0.0000 C   0  0
    0.0000    0.0000    0.0000 C   0  0
    0.0000    0.0000    0.0000 C   0  0
    0.0000    0.0000    0.0000 C   0  0
    0.0000    0.0000    0.0000 C   0  0
    0.0000    0.0000    0.0000 N   0  0
    0.0000    0.0000    0.0000 C   0  0
    0.0000    0.0000    0.0000 C   0  0
    0.0000    0.0000    0.0000 N   0  0
    0.0000    0.0000    0.0000 S   0  0
    0.0000    0.0000    0.0000 N   0  0
    0.0000    0.0000    0.0000 C   0  0
    0.0000    0.0000    0.0000 C   0  0
    0.0000    0.0000    0.0000 C   0  0
    0.0000    0.0000    0.0000 F   0  0
    0.0000    0.0000    0.0000 C   0  0
    0.0000    0.0000    0.0000 S   0  0
    0.0000    0.0000    0.0000 C   0  0
    0.0000    0.0000    0.0000 C   0  0
    0.0000    0.0000    0.0000 C   0  0
    0.0000    0.0000    0.0000 C   0  0
    0.0000    0.0000    0.0000 C   0  0
    0.0000    0.0000    0.0000 C   0  0
    0.0000    0.0000    0.0000 C   0  0
  1  2  2  0
  2  3  1  0
  3  4  1  0
  4  5  1  0
  5  6  1  0
  6  7  2  3
  7  8  1  0
  8  9  2  3
  9 10  1  0
 10 11  1  0
 11 12  2  3
 12 13  1  0
 13 14  1  0
 14 15  2  3
 15 16  1  0
 16 17  2  3
 17 18  1  0
 18 19  1  0
 18 20  1  0
 20 21  2  3
 21 16  1  0
 15 22  1  0
 22 12  1  0
 13 23  2  3
 23 24  1  0
 24 25  2  3
 25 11  1  0
  9 26  1  0
 26 27  1  0
 26 28  2  3
 28  6  1  0
  4 29  2  0
  2 30  1  0
 30 31  1  0
 31 32  2  3
 32 33  1  0
 33 34  2  3
 34 35  1  0
 35 36  2  3
 36 31  1  0
M  END
> <smiles>
O=C(NC(NC1=CC=C(OC2=C3C(C=C(C4=CN(C)C=N4)S3)=NC=C2)C(F)=C1)=S)CC5=CC=CC=C5

> <facility_reagent_id>
HMSL10124

> <salt_id>
101

> <chemical_name>
MGCD265

> <inchi>
InChI=1S/C26H20FN5O2S2/c1-32-14-20(29-15-32)23-13-19-25(36-23)22(9-10-28-19)34-21-8-7-17(12-18(21)27)30-26(35)31-24(33)11-16-5-3-2-4-6-16/h2-10,12-15H,11H2,1H3,(H2,30,31,33,35)

> <inchi_key>

> <chebi_id>

> <lincs_id>

> <pubchem_cid>
n/a

> <chembl_id>
n/a

> <molecular_mass>
517.6

> <molecular_formula>
C26H20FN5O2S2

$$$$

  SciTegic08031211342D

 43 48  0  0  1  0            999 V2000
    0.0000    0.0000    0.0000 O   0  0
    0.0000    0.0000    0.0000 C   0  0
    0.0000    0.0000    0.0000 N   0  0
    0.0000    0.0000    0.0000 C   0  0
    0.0000    0.0000    0.0000 C   0  0
    0.0000    0.0000    0.0000 C   0  0
    0.0000    0.0000    0.0000 C   0  0
    0.0000    0.0000    0.0000 S   0  0
    0.0000    0.0000    0.0000 O   0  0
    0.0000    0.0000    0.0000 C   0  0
    0.0000    0.0000    0.0000 C   0  0
    0.0000    0.0000    0.0000 C   0  0
    0.0000    0.0000    0.0000 Cl  0  0
    0.0000    0.0000    0.0000 C   0  0
    0.0000    0.0000    0.0000 C   0  0
    0.0000    0.0000    0.0000 C   0  0
    0.0000    0.0000    0.0000 C   0  0
    0.0000    0.0000    0.0000 Cl  0  0
    0.0000    0.0000    0.0000 O   0  0
    0.0000    0.0000    0.0000 C   0  0
    0.0000    0.0000    0.0000 C   0  0
    0.0000    0.0000    0.0000 C   0  0
    0.0000    0.0000    0.0000 C   0  0
    0.0000    0.0000    0.0000 C   0  0
    0.0000    0.0000    0.0000 C   0  0
    0.0000    0.0000    0.0000 C   0  0
    0.0000    0.0000    0.0000 C   0  0
    0.0000    0.0000    0.0000 C   0  0
    0.0000    0.0000    0.0000 N   0  0
    0.0000    0.0000    0.0000 C   0  0  1  0  0  0
    0.0000    0.0000    0.0000 C   0  0
    0.0000    0.0000    0.0000 N   0  0
    0.0000    0.0000    0.0000 C   0  0
    0.0000    0.0000    0.0000 C   0  0
    0.0000    0.0000    0.0000 C   0  0
    0.0000    0.0000    0.0000 C   0  0
    0.0000    0.0000    0.0000 C   0  0
    0.0000    0.0000    0.0000 C   0  0
    0.0000    0.0000    0.0000 C   0  0
    0.0000    0.0000    0.0000 O   0  0
    0.0000    0.0000    0.0000 C   0  0
    0.0000    0.0000    0.0000 C   0  0
    0.0000    0.0000    0.0000 N   0  0
  1  2  2  0
  2  3  1  0
  3  4  1  0
  4  5  2  3
  5  6  1  0
  6  7  2  3
  7  8  1  0
  8  9  2  0
  8 10  1  0
 10 11  1  0
 11 12  2  3
 12 13  1  0
 12 14  1  0
 14 15  2  3
 15 16  1  0
 16 17  2  3
 17 11  1  0
 17 18  1  0
  8 19  2  0
  7 20  1  0
 20 21  2  3
 21  4  1  0
  5 22  1  0
 22  2  1  0
 22 23  2  3
 23 24  1  0
 24 25  2  3
 25 26  1  0
 25 27  1  0
 27 28  1  0
 28 29  1  0
 29 30  1  0
 30 31  1  1
 31 32  1  0
 32 33  1  0
 33 34  1  0
 34 35  1  0
 35 36  1  0
 36 32  1  0
 30 37  1  0
 37 38  1  0
 38 39  1  0
 39 29  1  0
 28 40  2  0
 27 41  2  3
 41 42  1  0
 41 43  1  0
 43 24  1  0
M  END
> <smiles>
O=C1NC2=C(C=C(S(=O)(CC3=C(Cl)C=CC=C3Cl)=O)C=C2)/C1=C/C4=C(C)C(C(N5[C@@H](CN6CCCC6)CCC5)=O)=C(C)N4

> <facility_reagent_id>
HMSL10125

> <salt_id>
101

> <chemical_name>
PHA-665752

> <inchi>
InChI=1S/C32H34Cl2N4O4S/c1-19-29(35-20(2)30(19)32(40)38-14-6-7-21(38)17-37-12-3-4-13-37)16-24-23-15-22(10-11-28(23)36-31(24)39)43(41,42)18-25-26(33)8-5-9-27(25)34/h5,8-11,15-16,21,35H,3-4,6-7,12-14,17
-18H2,1-2H3,(H,36,39)/b24-16-/t21-/m1/s1

> <inchi_key>

> <chebi_id>

> <lincs_id>

> <pubchem_cid>
n/a

> <chembl_id>
n/a

> <molecular_mass>
641.61

> <molecular_formula>
C32H34Cl2N4O4S

$$$$

  SciTegic08031211342D

 26 30  0  0  0  0            999 V2000
    0.0000    0.0000    0.0000 O   0  0
    0.0000    0.0000    0.0000 C   0  0
    0.0000    0.0000    0.0000 C   0  0
    0.0000    0.0000    0.0000 C   0  0
    0.0000    0.0000    0.0000 C   0  0
    0.0000    0.0000    0.0000 C   0  0
    0.0000    0.0000    0.0000 C   0  0
    0.0000    0.0000    0.0000 N   0  0
    0.0000    0.0000    0.0000 C   0  0
    0.0000    0.0000    0.0000 N   0  0
    0.0000    0.0000    0.0000 C   0  0
    0.0000    0.0000    0.0000 C   0  0
    0.0000    0.0000    0.0000 O   0  0
    0.0000    0.0000    0.0000 C   0  0
    0.0000    0.0000    0.0000 C   0  0
    0.0000    0.0000    0.0000 C   0  0
    0.0000    0.0000    0.0000 O   0  0
    0.0000    0.0000    0.0000 C   0  0
    0.0000    0.0000    0.0000 N   0  0
    0.0000    0.0000    0.0000 C   0  0
    0.0000    0.0000    0.0000 C   0  0
    0.0000    0.0000    0.0000 C   0  0
    0.0000    0.0000    0.0000 C   0  0
    0.0000    0.0000    0.0000 C   0  0
    0.0000    0.0000    0.0000 N   0  0
    0.0000    0.0000    0.0000 C   0  0
  1  2  1  0
  2  3  2  3
  3  4  1  0
  4  5  2  3
  5  6  1  0
  6  7  1  0
  7  8  2  3
  8  9  1  0
  9 10  1  0
 10 11  1  0
 11 12  1  0
 12 13  1  0
 13 14  1  0
 14 15  1  0
 15 10  1  0
  9 16  2  3
 16 17  1  0
 17 18  1  0
 18 19  2  3
 19 20  1  0
 20 21  2  3
 21 22  1  0
 22 23  2  3
 23 18  1  0
 16 24  1  0
 24 23  1  0
 24 25  2  3
 25  7  1  0
  6 26  2  3
 26  2  1  0
M  END
> <smiles>
OC1=CC=CC(C2=NC(N3CCOCC3)=C(OC4=NC=CC=C45)C5=N2)=C1

> <facility_reagent_id>
HMSL10126

> <salt_id>
101

> <chemical_name>
PI103

> <inchi>
InChI=1S/C19H16N4O3/c24-13-4-1-3-12(11-13)17-21-15-14-5-2-6-20-19(14)26-16(15)18(22-17)23-7-9-25-10-8-23/h1-6,11,24H,7-10H2

> <inchi_key>

> <chebi_id>

> <lincs_id>

> <pubchem_cid>
n/a

> <chembl_id>
n/a

> <molecular_mass>
348.36

> <molecular_formula>
C19H16N4O3

$$$$

  SciTegic08031211342D

 29 33  0  0  0  0            999 V2000
    0.0000    0.0000    0.0000 O   0  0
    0.0000    0.0000    0.0000 C   0  0
    0.0000    0.0000    0.0000 N   0  0
    0.0000    0.0000    0.0000 C   0  0
    0.0000    0.0000    0.0000 C   0  0
    0.0000    0.0000    0.0000 C   0  0
    0.0000    0.0000    0.0000 F   0  0
    0.0000    0.0000    0.0000 C   0  0
    0.0000    0.0000    0.0000 C   0  0
    0.0000    0.0000    0.0000 C   0  0
    0.0000    0.0000    0.0000 C   0  0
    0.0000    0.0000    0.0000 N   0  0
    0.0000    0.0000    0.0000 C   0  0
    0.0000    0.0000    0.0000 C   0  0
    0.0000    0.0000    0.0000 N   0  0
    0.0000    0.0000    0.0000 C   0  0
    0.0000    0.0000    0.0000 C   0  0
    0.0000    0.0000    0.0000 C   0  0
    0.0000    0.0000    0.0000 C   0  0
    0.0000    0.0000    0.0000 N   0  0
    0.0000    0.0000    0.0000 C   0  0
    0.0000    0.0000    0.0000 C   0  0
    0.0000    0.0000    0.0000 N   0  0
    0.0000    0.0000    0.0000 C   0  0
    0.0000    0.0000    0.0000 C   0  0
    0.0000    0.0000    0.0000 C   0  0
    0.0000    0.0000    0.0000 C   0  0
    0.0000    0.0000    0.0000 C   0  0
    0.0000    0.0000    0.0000 N   0  0
  1  2  2  0
  2  3  1  0
  3  4  1  0
  4  5  2  3
  5  6  1  0
  6  7  1  0
  6  8  2  3
  8  9  1  0
  9 10  2  3
 10  4  1  0
  5 11  1  0
 11 12  1  0
 11 13  2  3
 13  2  1  0
 13 14  1  0
 14 15  2  3
 15 16  1  0
 16 17  2  3
 17 18  1  0
 18 19  2  3
 19 20  1  0
 20 21  1  0
 21 22  1  0
 22 23  1  0
 23 24  1  0
 23 25  1  0
 25 26  1  0
 26 20  1  0
 19 27  1  0
 27 28  2  3
 28 16  1  0
 28 29  1  0
 29 14  1  0
M  END
> <smiles>
O=C1NC2=C(C(F)=CC=C2)C(N)=C1C3=NC4=CC=C(N5CCN(C)CC5)C=C4N3

> <facility_reagent_id>
HMSL10127

> <salt_id>
101

> <chemical_name>
TKI_258; TKI258; Dovitinib

> <inchi>
InChI=1S/C21H21FN6O/c1-27-7-9-28(10-8-27)12-5-6-14-16(11-12)25-20(24-14)18-19(23)17-13(22)3-2-4-15(17)26-21(18)29/h2-6,11H,7-10H2,1H3,(H,24,25)(H3,23,26,29)

> <inchi_key>

> <chebi_id>

> <lincs_id>

> <pubchem_cid>
n/a

> <chembl_id>
n/a

> <molecular_mass>
392.43

> <molecular_formula>
C21H21FN6O

$$$$

  SciTegic08031211342D

 31 34  0  0  0  0            999 V2000
    0.0000    0.0000    0.0000 C   0  0
    0.0000    0.0000    0.0000 C   0  0
    0.0000    0.0000    0.0000 N   0  0
    0.0000    0.0000    0.0000 C   0  0
    0.0000    0.0000    0.0000 C   0  0
    0.0000    0.0000    0.0000 C   0  0
    0.0000    0.0000    0.0000 N   0  0
    0.0000    0.0000    0.0000 C   0  0
    0.0000    0.0000    0.0000 C   0  0
    0.0000    0.0000    0.0000 O   0  0
    0.0000    0.0000    0.0000 C   0  0
    0.0000    0.0000    0.0000 C   0  0
    0.0000    0.0000    0.0000 C   0  0
    0.0000    0.0000    0.0000 C   0  0
    0.0000    0.0000    0.0000 C   0  0
    0.0000    0.0000    0.0000 N   0  0
    0.0000    0.0000    0.0000 C   0  0
    0.0000    0.0000    0.0000 C   0  0
    0.0000    0.0000    0.0000 C   0  0
    0.0000    0.0000    0.0000 C   0  0
    0.0000    0.0000    0.0000 C   0  0
    0.0000    0.0000    0.0000 C   0  0
    0.0000    0.0000    0.0000 O   0  0
    0.0000    0.0000    0.0000 N   0  0
    0.0000    0.0000    0.0000 C   0  0
    0.0000    0.0000    0.0000 C   0  0
    0.0000    0.0000    0.0000 N   0  0
    0.0000    0.0000    0.0000 O   0  0
    0.0000    0.0000    0.0000 N   0  0
    0.0000    0.0000    0.0000 C   0  0
    0.0000    0.0000    0.0000 N   0  0
  1  2  1  0
  2  3  1  0
  3  4  1  0
  4  5  2  3
  5  6  1  0
  6  7  2  3
  7  8  1  0
  8  9  2  3
  9  4  1  0
  9 10  1  0
 10 11  1  0
 11 12  1  0
 12 13  1  0
 13 14  1  0
 14 15  1  0
 15 16  1  0
 16 17  1  0
 17 12  1  0
  6 18  1  0
 18 19  3  0
 19 20  1  0
 20 21  1  0
 20 22  1  0
 20 23  1  0
  5 24  1  0
 24 25  2  3
 25  3  1  0
 25 26  1  0
 26 27  2  3
 27 28  1  0
 28 29  1  0
 29 30  2  3
 30 26  1  0
 30 31  1  0
M  END
> <smiles>
CCN1C2=C(C(=NC=C2OCC3CCCNC3)C#CC(C)(C)O)N=C1C4=NON=C4N

> <facility_reagent_id>
HMSL10128

> <salt_id>
101

> <chemical_name>
GSK 690693

> <inchi>
InChI=1S/C21H27N7O3/c1-4-28-18-15(30-12-13-6-5-9-23-10-13)11-24-14(7-8-21(2,3)29)16(18)25-20(28)17-19(22)27-31-26-17/h11,13,23,29H,4-6,9-10,12H2,1-3H3,(H2,22,27)

> <inchi_key>

> <chebi_id>

> <lincs_id>

> <pubchem_cid>
n/a

> <chembl_id>
n/a

> <molecular_mass>
425.48

> <molecular_formula>
C21H27N7O3

$$$$

  SciTegic08031211342D

 33 37  0  0  0  0            999 V2000
    0.0000    0.0000    0.0000 C   0  0
    0.0000    0.0000    0.0000 C   0  0
    0.0000    0.0000    0.0000 C   0  0
    0.0000    0.0000    0.0000 O   0  0
    0.0000    0.0000    0.0000 N   0  0
    0.0000    0.0000    0.0000 C   0  0
    0.0000    0.0000    0.0000 C   0  0
    0.0000    0.0000    0.0000 C   0  0
    0.0000    0.0000    0.0000 C   0  0
    0.0000    0.0000    0.0000 C   0  0
    0.0000    0.0000    0.0000 N   0  0
    0.0000    0.0000    0.0000 C   0  0
    0.0000    0.0000    0.0000 C   0  0
    0.0000    0.0000    0.0000 C   0  0
    0.0000    0.0000    0.0000 N   0  0
    0.0000    0.0000    0.0000 C   0  0
    0.0000    0.0000    0.0000 C   0  0
    0.0000    0.0000    0.0000 C   0  0
    0.0000    0.0000    0.0000 C   0  0
    0.0000    0.0000    0.0000 C   0  0
    0.0000    0.0000    0.0000 C   0  0
    0.0000    0.0000    0.0000 O   0  0
    0.0000    0.0000    0.0000 C   0  0
    0.0000    0.0000    0.0000 C   0  0
    0.0000    0.0000    0.0000 C   0  0
    0.0000    0.0000    0.0000 C   0  0
    0.0000    0.0000    0.0000 C   0  0
    0.0000    0.0000    0.0000 C   0  0
    0.0000    0.0000    0.0000 C   0  0
    0.0000    0.0000    0.0000 N   0  0
    0.0000    0.0000    0.0000 C   0  0
    0.0000    0.0000    0.0000 N   0  0
    0.0000    0.0000    0.0000 N   0  0
  1  2  2  0
  2  3  1  0
  3  4  2  0
  3  5  1  0
  5  6  1  0
  6  7  1  0
  7  8  1  0
  8  9  1  0
  9 10  1  0
 10  5  1  0
  9 11  1  0
 11 12  1  0
 12 13  2  3
 13 14  1  0
 14 15  2  3
 15 11  1  0
 14 16  1  0
 16 17  2  3
 17 18  1  0
 18 19  2  3
 19 20  1  0
 20 21  2  3
 21 16  1  0
 19 22  1  0
 22 23  1  0
 23 24  2  3
 24 25  1  0
 25 26  2  3
 26 27  1  0
 27 28  2  3
 28 23  1  0
 13 29  1  0
 29 30  2  3
 30 31  1  0
 31 32  2  3
 32 12  1  0
 29 33  1  0
M  END
> <smiles>
C=CC(=O)N1CCCC(C1)N2C3=C(C(=N2)C4=CC=C(C=C4)OC5=CC=CC=C5)C(=NC=N3)N

> <facility_reagent_id>
HMSL10129

> <salt_id>
101

> <chemical_name>
PCI-32765

> <inchi>
InChI=1S/C25H24N6O2/c1-2-21(32)30-14-6-7-18(15-30)31-25-22(24(26)27-16-28-25)23(29-31)17-10-12-20(13-11-17)33-19-8-4-3-5-9-19/h2-5,8-13,16,18H,1,6-7,14-15H2,(H2,26,27,28)

> <inchi_key>

> <chebi_id>

> <lincs_id>

> <pubchem_cid>
n/a

> <chembl_id>
n/a

> <molecular_mass>
440.5

> <molecular_formula>
C25H24N6O2

$$$$

  SciTegic08031211342D

 36 40  0  0  0  0            999 V2000
    0.0000    0.0000    0.0000 C   0  0
    0.0000    0.0000    0.0000 C   0  0
    0.0000    0.0000    0.0000 C   0  0
    0.0000    0.0000    0.0000 C   0  0
    0.0000    0.0000    0.0000 C   0  0
    0.0000    0.0000    0.0000 C   0  0
    0.0000    0.0000    0.0000 C   0  0
    0.0000    0.0000    0.0000 N   0  0
    0.0000    0.0000    0.0000 C   0  0
    0.0000    0.0000    0.0000 O   0  0
    0.0000    0.0000    0.0000 C   0  0
    0.0000    0.0000    0.0000 C   0  0
    0.0000    0.0000    0.0000 C   0  0
    0.0000    0.0000    0.0000 C   0  0
    0.0000    0.0000    0.0000 C   0  0
    0.0000    0.0000    0.0000 C   0  0
    0.0000    0.0000    0.0000 C   0  0
    0.0000    0.0000    0.0000 N   0  0
    0.0000    0.0000    0.0000 C   0  0
    0.0000    0.0000    0.0000 C   0  0
    0.0000    0.0000    0.0000 N   0  0
    0.0000    0.0000    0.0000 C   0  0
    0.0000    0.0000    0.0000 C   0  0
    0.0000    0.0000    0.0000 C   0  0
    0.0000    0.0000    0.0000 N   0  0
    0.0000    0.0000    0.0000 C   0  0
    0.0000    0.0000    0.0000 N   0  0
    0.0000    0.0000    0.0000 C   0  0
    0.0000    0.0000    0.0000 C   0  0
    0.0000    0.0000    0.0000 S   0  0
    0.0000    0.0000    0.0000 C   0  0
    0.0000    0.0000    0.0000 C   0  0
    0.0000    0.0000    0.0000 N   0  0
    0.0000    0.0000    0.0000 C   0  0
    0.0000    0.0000    0.0000 C   0  0
    0.0000    0.0000    0.0000 C   0  0
  1  2  1  0
  2  3  2  3
  3  4  1  0
  4  5  2  3
  5  6  1  0
  6  7  2  3
  7  2  1  0
  5  8  1  0
  8  9  1  0
  9 10  2  0
  9 11  1  0
 11 12  2  3
 12 13  1  0
 13 14  2  3
 14 15  1  0
 15 16  2  3
 16 11  1  0
 14 17  1  0
 17 18  1  0
 18 19  1  0
 19 20  1  0
 20 21  1  0
 21 22  1  0
 22 23  1  0
 23 18  1  0
 21 24  1  0
  3 25  1  0
 25 26  1  0
 26 27  2  3
 27 28  1  0
 28 29  2  3
 29 30  1  0
 30 26  1  0
 28 31  1  0
 31 32  2  3
 32 33  1  0
 33 34  2  3
 34 35  1  0
 35 36  2  3
 36 31  1  0
M  END
> <smiles>
CC1=C(C=C(C=C1)NC(=O)C2=CC=C(C=C2)CN3CCN(CC3)C)NC4=NC(=CS4)C5=CN=CC=C5

> <facility_reagent_id>
HMSL10130

> <salt_id>
101

> <chemical_name>
Masitinib; AB1010

> <inchi>
InChI=1S/C28H30N6OS/c1-20-5-10-24(16-25(20)31-28-32-26(19-36-28)23-4-3-11-29-17-23)30-27(35)22-8-6-21(7-9-22)18-34-14-12-33(2)13-15-34/h3-11,16-17,19H,12-15,18H2,1-2H3,(H,30,35)(H,31,32)

> <inchi_key>

> <chebi_id>

> <lincs_id>

> <pubchem_cid>
n/a

> <chembl_id>
n/a

> <molecular_mass>
498.64

> <molecular_formula>
C28H30N6OS

$$$$

  SciTegic08031211342D

 30 35  0  0  1  0            999 V2000
    0.0000    0.0000    0.0000 O   0  0
    0.0000    0.0000    0.0000 C   0  0
    0.0000    0.0000    0.0000 N   0  0
    0.0000    0.0000    0.0000 C   0  0
    0.0000    0.0000    0.0000 O   0  0
    0.0000    0.0000    0.0000 C   0  0  2  0  0  0
    0.0000    0.0000    0.0000 H   0  0
    0.0000    0.0000    0.0000 C   0  0  2  0  0  0
    0.0000    0.0000    0.0000 H   0  0
    0.0000    0.0000    0.0000 C   0  0
    0.0000    0.0000    0.0000 C   0  0
    0.0000    0.0000    0.0000 N   0  0
    0.0000    0.0000    0.0000 C   0  0
    0.0000    0.0000    0.0000 C   0  0
    0.0000    0.0000    0.0000 C   0  0
    0.0000    0.0000    0.0000 C   0  0
    0.0000    0.0000    0.0000 C   0  0
    0.0000    0.0000    0.0000 C   0  0
    0.0000    0.0000    0.0000 C   0  0
    0.0000    0.0000    0.0000 C   0  0
    0.0000    0.0000    0.0000 N   0  0
    0.0000    0.0000    0.0000 C   0  0
    0.0000    0.0000    0.0000 C   0  0
    0.0000    0.0000    0.0000 C   0  0
    0.0000    0.0000    0.0000 C   0  0
    0.0000    0.0000    0.0000 C   0  0
    0.0000    0.0000    0.0000 C   0  0
    0.0000    0.0000    0.0000 C   0  0
    0.0000    0.0000    0.0000 C   0  0
    0.0000    0.0000    0.0000 C   0  0
  1  2  2  0
  2  3  1  0
  3  4  1  0
  4  5  2  0
  2  6  1  0
  6  7  1  1
  6  8  1  0
  8  4  1  0
  8  9  1  1
  8 10  1  0
 10 11  2  3
 11 12  1  0
 12 13  1  0
 13 14  2  3
 14 10  1  0
 14 15  1  0
 15 16  2  3
 16 17  1  0
 17 18  2  3
 18 13  1  0
  6 19  1  0
 19 20  2  3
 20 21  1  0
 21 22  1  0
 22 23  2  3
 23 24  1  0
 24 25  2  3
 25 26  1  0
 26 27  2  3
 27 22  1  0
 27 19  1  0
 23 28  1  0
 28 29  1  0
 29 30  1  0
 30 21  1  0
M  END
> <smiles>
O=C(NC1=O)[C@]([H])([C@]1([H])C2=CNC3=C2C=CC=C3)C4=CN5C6=C(C=CC=C64)CCC5

> <facility_reagent_id>
HMSL10131

> <salt_id>
101

> <chemical_name>
Tivantinib; ARQ197

> <inchi>
InChI=1S/C23H19N3O2/c27-22-19(16-11-24-18-9-2-1-7-14(16)18)20(23(28)25-22)17-12-26-10-4-6-13-5-3-8-15(17)21(13)26/h1-3,5,7-9,11-12,19-20,24H,4,6,10H2,(H,25,27,28)/t19-,20-/m0/s1

> <inchi_key>

> <chebi_id>

> <lincs_id>

> <pubchem_cid>
n/a

> <chembl_id>
n/a

> <molecular_mass>
369.42

> <molecular_formula>
C23H19N3O2

$$$$

  SciTegic08031211342D

 25 27  0  0  0  0            999 V2000
    0.0000    0.0000    0.0000 C   0  0
    0.0000    0.0000    0.0000 C   0  0
    0.0000    0.0000    0.0000 C   0  0
    0.0000    0.0000    0.0000 C   0  0
    0.0000    0.0000    0.0000 C   0  0
    0.0000    0.0000    0.0000 C   0  0
    0.0000    0.0000    0.0000 N   0  0
    0.0000    0.0000    0.0000 C   0  0
    0.0000    0.0000    0.0000 O   0  0
    0.0000    0.0000    0.0000 C   0  0
    0.0000    0.0000    0.0000 S   0  0
    0.0000    0.0000    0.0000 C   0  0
    0.0000    0.0000    0.0000 C   0  0
    0.0000    0.0000    0.0000 N   0  0
    0.0000    0.0000    0.0000 C   0  0
    0.0000    0.0000    0.0000 S   0  0
    0.0000    0.0000    0.0000 N   0  0
    0.0000    0.0000    0.0000 C   0  0
    0.0000    0.0000    0.0000 O   0  0
    0.0000    0.0000    0.0000 C   0  0
    0.0000    0.0000    0.0000 C   0  0
    0.0000    0.0000    0.0000 C   0  0
    0.0000    0.0000    0.0000 N   0  0
    0.0000    0.0000    0.0000 C   0  0
    0.0000    0.0000    0.0000 C   0  0
  1  2  1  0
  2  3  1  0
  2  4  1  0
  2  5  1  0
  5  6  2  3
  6  7  1  0
  7  8  2  3
  8  9  1  0
  9  5  1  0
  8 10  1  0
 10 11  1  0
 11 12  1  0
 12 13  2  3
 13 14  1  0
 14 15  2  3
 15 16  1  0
 16 12  1  0
 15 17  1  0
 17 18  1  0
 18 19  2  0
 18 20  1  0
 20 21  1  0
 21 22  1  0
 22 23  1  0
 23 24  1  0
 24 25  1  0
 25 20  1  0
M  END
> <smiles>
CC(C)(C)C1=CN=C(O1)CSC2=CN=C(S2)NC(=O)C3CCNCC3

> <facility_reagent_id>
HMSL10132

> <salt_id>
101

> <chemical_name>
BMS-387032; SNS-032

> <inchi>
InChI=1S/C17H24N4O2S2/c1-17(2,3)12-8-19-13(23-12)10-24-14-9-20-16(25-14)21-15(22)11-4-6-18-7-5-11/h8-9,11,18H,4-7,10H2,1-3H3,(H,20,21,22)

> <inchi_key>

> <chebi_id>

> <lincs_id>

> <pubchem_cid>
n/a

> <chembl_id>
n/a

> <molecular_mass>
380.53

> <molecular_formula>
C17H24N4O2S2

$$$$

  SciTegic08031211342D

 34 37  0  0  0  0            999 V2000
    0.0000    0.0000    0.0000 C   0  0
    0.0000    0.0000    0.0000 N   0  0
    0.0000    0.0000    0.0000 C   0  0
    0.0000    0.0000    0.0000 C   0  0
    0.0000    0.0000    0.0000 C   0  0
    0.0000    0.0000    0.0000 C   0  0
    0.0000    0.0000    0.0000 C   0  0
    0.0000    0.0000    0.0000 O   0  0
    0.0000    0.0000    0.0000 N   0  0
    0.0000    0.0000    0.0000 C   0  0
    0.0000    0.0000    0.0000 C   0  0
    0.0000    0.0000    0.0000 C   0  0
    0.0000    0.0000    0.0000 C   0  0
    0.0000    0.0000    0.0000 C   0  0
    0.0000    0.0000    0.0000 C   0  0
    0.0000    0.0000    0.0000 C   0  0
    0.0000    0.0000    0.0000 N   0  0
    0.0000    0.0000    0.0000 C   0  0
    0.0000    0.0000    0.0000 N   0  0
    0.0000    0.0000    0.0000 N   0  0
    0.0000    0.0000    0.0000 C   0  0
    0.0000    0.0000    0.0000 C   0  0
    0.0000    0.0000    0.0000 C   0  0
    0.0000    0.0000    0.0000 C   0  0
    0.0000    0.0000    0.0000 C   0  0
    0.0000    0.0000    0.0000 C   0  0
    0.0000    0.0000    0.0000 F   0  0
    0.0000    0.0000    0.0000 Cl  0  0
    0.0000    0.0000    0.0000 O   0  0
    0.0000    0.0000    0.0000 C   0  0
    0.0000    0.0000    0.0000 C   0  0
    0.0000    0.0000    0.0000 C   0  0
    0.0000    0.0000    0.0000 O   0  0
    0.0000    0.0000    0.0000 C   0  0
  1  2  1  0
  2  3  1  0
  2  4  1  0
  4  5  1  0
  5  6  2  3
  6  7  1  0
  7  8  2  0
  7  9  1  0
  9 10  1  0
 10 11  2  3
 11 12  1  0
 12 13  2  3
 13 14  1  0
 14 15  2  3
 15 10  1  0
 14 16  1  0
 16 17  2  3
 17 18  1  0
 18 19  2  3
 19 13  1  0
 16 20  1  0
 20 21  1  0
 21 22  2  3
 22 23  1  0
 23 24  2  3
 24 25  1  0
 25 26  2  3
 26 21  1  0
 24 27  1  0
 23 28  1  0
 11 29  1  0
 29 30  1  0
 30 31  1  0
 31 32  1  0
 32 33  1  0
 33 34  1  0
 34 30  1  0
M  END
> <smiles>
CN(C)CC=CC(=O)NC1=C(C=C2C(=C1)C(=NC=N2)NC3=CC(=C(C=C3)F)Cl)OC4CCOC4

> <facility_reagent_id>
HMSL10133

> <salt_id>
101

> <chemical_name>
BIBW-2992; Afatinib

> <inchi>
InChI=1S/C24H25ClFN5O3/c1-31(2)8-3-4-23(32)30-21-11-17-20(12-22(21)34-16-7-9-33-13-16)27-14-28-24(17)29-15-5-6-19(26)18(25)10-15/h3-6,10-12,14,16H,7-9,13H2,1-2H3,(H,30,32)(H,27,28,29)

> <inchi_key>

> <chebi_id>

> <lincs_id>

> <pubchem_cid>
n/a

> <chembl_id>
n/a

> <molecular_mass>
485.94

> <molecular_formula>
C24H25ClFN5O3

$$$$

  SciTegic08031211342D

 61 68  0  0  0  0            999 V2000
    0.0000    0.0000    0.0000 C   0  0
    0.0000    0.0000    0.0000 C   0  0
    0.0000    0.0000    0.0000 C   0  0
    0.0000    0.0000    0.0000 C   0  0
    0.0000    0.0000    0.0000 C   0  0
    0.0000    0.0000    0.0000 C   0  0
    0.0000    0.0000    0.0000 C   0  0
    0.0000    0.0000    0.0000 C   0  0
    0.0000    0.0000    0.0000 N   0  0
    0.0000    0.0000    0.0000 C   0  0
    0.0000    0.0000    0.0000 C   0  0
    0.0000    0.0000    0.0000 C   0  0
    0.0000    0.0000    0.0000 C   0  0
    0.0000    0.0000    0.0000 C   0  0
    0.0000    0.0000    0.0000 N   0  0
    0.0000    0.0000    0.0000 C   0  0
    0.0000    0.0000    0.0000 C   0  0
    0.0000    0.0000    0.0000 N   0  0
    0.0000    0.0000    0.0000 C   0  0
    0.0000    0.0000    0.0000 C   0  0
    0.0000    0.0000    0.0000 S   0  0
    0.0000    0.0000    0.0000 O   0  0
    0.0000    0.0000    0.0000 O   0  0
    0.0000    0.0000    0.0000 C   0  0
    0.0000    0.0000    0.0000 O   0  0
    0.0000    0.0000    0.0000 C   0  0
    0.0000    0.0000    0.0000 N   0  0
    0.0000    0.0000    0.0000 C   0  0
    0.0000    0.0000    0.0000 N   0  0
    0.0000    0.0000    0.0000 C   0  0
    0.0000    0.0000    0.0000 C   0  0
    0.0000    0.0000    0.0000 C   0  0
    0.0000    0.0000    0.0000 N   0  0
    0.0000    0.0000    0.0000 C   0  0
    0.0000    0.0000    0.0000 C   0  0
    0.0000    0.0000    0.0000 N   0  0
    0.0000    0.0000    0.0000 C   0  0
    0.0000    0.0000    0.0000 N   0  0
    0.0000    0.0000    0.0000 C   0  0
    0.0000    0.0000    0.0000 C   0  0
    0.0000    0.0000    0.0000 C   0  0
    0.0000    0.0000    0.0000 C   0  0
    0.0000    0.0000    0.0000 C   0  0
    0.0000    0.0000    0.0000 C   0  0
    0.0000    0.0000    0.0000 C   0  0
    0.0000    0.0000    0.0000 C   0  0
    0.0000    0.0000    0.0000 C   0  0
    0.0000    0.0000    0.0000 C   0  0
    0.0000    0.0000    0.0000 O   0  0
    0.0000    0.0000    0.0000 C   0  0
    0.0000    0.0000    0.0000 C   0  0
    0.0000    0.0000    0.0000 O   0  0
    0.0000    0.0000    0.0000 N   0  0
    0.0000    0.0000    0.0000 C   0  0
    0.0000    0.0000    0.0000 C   0  0
    0.0000    0.0000    0.0000 C   0  0
    0.0000    0.0000    0.0000 C   0  0
    0.0000    0.0000    0.0000 C   0  0
    0.0000    0.0000    0.0000 C   0  0
    0.0000    0.0000    0.0000 F   0  0
    0.0000    0.0000    0.0000 F   0  0
  1  2  1  0
  2  3  1  0
  3  4  2  3
  4  5  1  0
  5  6  2  3
  6  7  1  0
  7  8  2  3
  8  3  1  0
  8  9  1  0
  9 10  1  0
 10 11  1  0
 11 12  1  0
 12 13  1  0
 13 14  1  0
 14  9  1  0
 12 15  1  0
 15 16  1  0
 16 17  1  0
 17 18  1  0
 18 19  1  0
 19 20  1  0
 20 15  1  0
 18 21  1  0
 21 22  2  0
 21 23  2  0
 21 24  1  0
  6 25  1  0
 25 26  1  0
  5 27  1  0
 27 28  1  0
 28 29  2  3
 29 30  1  0
 30 31  2  3
 31 32  1  0
 32 33  2  3
 33 28  1  0
 32 34  1  0
 34 35  2  3
 35 36  1  0
 36 37  2  3
 37 38  1  0
 38 34  1  0
 38 39  1  0
 39 40  2  3
 40 41  1  0
 41 42  2  3
 42 37  1  0
 35 43  1  0
 43 44  2  3
 44 45  1  0
 45 46  2  3
 46 47  1  0
 47 48  2  3
 48 43  1  0
 46 49  1  0
 49 50  1  0
 45 51  1  0
 51 52  2  0
 51 53  1  0
 53 54  1  0
 54 55  2  3
 55 56  1  0
 56 57  2  3
 57 58  1  0
 58 59  2  3
 59 54  1  0
 59 60  1  0
 55 61  1  0
M  END
> <smiles>
CCC1=CC(=C(C=C1N2CCC(CC2)N3CCN(CC3)S(=O)(=O)C)OC)NC4=NC=CC(=N4)C5=C(N=C6N5C=CC=C6)C7=CC(=C(C=C7)OC)C(=O)NC8=C(C=CC=C8F)F

> <facility_reagent_id>
HMSL10134

> <salt_id>
101

> <chemical_name>
GSK1904529A

> <inchi>
InChI=1S/C44H47F2N9O5S/c1-5-28-26-35(38(60-3)27-36(28)53-19-15-30(16-20-53)52-21-23-54(24-22-52)61(4,57)58)49-44-47-17-14-34(48-44)42-40(50-39-11-6-7-18-55(39)42)29-12-13-37(59-2)31(25-29)43(56)51-41-
32(45)9-8-10-33(41)46/h6-14,17-18,25-27,30H,5,15-16,19-24H2,1-4H3,(H,51,56)(H,47,48,49)

> <inchi_key>

> <chebi_id>

> <lincs_id>

> <pubchem_cid>
n/a

> <chembl_id>
n/a

> <molecular_mass>
851.96

> <molecular_formula>
C44H47F2N9O5S

$$$$

  SciTegic08031211342D

 32 37  0  0  0  0            999 V2000
    0.0000    0.0000    0.0000 C   0  0
    0.0000    0.0000    0.0000 C   0  0
    0.0000    0.0000    0.0000 C   0  0
    0.0000    0.0000    0.0000 C   0  0
    0.0000    0.0000    0.0000 C   0  0
    0.0000    0.0000    0.0000 C   0  0
    0.0000    0.0000    0.0000 N   0  0
    0.0000    0.0000    0.0000 C   0  0
    0.0000    0.0000    0.0000 C   0  0
    0.0000    0.0000    0.0000 N   0  0
    0.0000    0.0000    0.0000 C   0  0
    0.0000    0.0000    0.0000 C   0  0
    0.0000    0.0000    0.0000 N   0  0
    0.0000    0.0000    0.0000 C   0  0
    0.0000    0.0000    0.0000 N   0  0
    0.0000    0.0000    0.0000 C   0  0
    0.0000    0.0000    0.0000 C   0  0
    0.0000    0.0000    0.0000 C   0  0
    0.0000    0.0000    0.0000 C   0  0
    0.0000    0.0000    0.0000 C   0  0
    0.0000    0.0000    0.0000 C   0  0
    0.0000    0.0000    0.0000 C   0  0
    0.0000    0.0000    0.0000 C   0  0
    0.0000    0.0000    0.0000 C   0  0
    0.0000    0.0000    0.0000 N   0  0
    0.0000    0.0000    0.0000 C   0  0
    0.0000    0.0000    0.0000 C   0  0
    0.0000    0.0000    0.0000 C   0  0
    0.0000    0.0000    0.0000 C   0  0
    0.0000    0.0000    0.0000 C   0  0
    0.0000    0.0000    0.0000 C   0  0
    0.0000    0.0000    0.0000 O   0  0
  1  2  1  0
  2  3  1  0
  3  4  1  0
  4  5  1  0
  5  2  1  0
  4  6  1  0
  6  7  2  3
  7  8  1  0
  8  9  2  3
  9 10  1  0
 10  6  1  0
 10 11  1  0
 11 12  2  3
 12 13  1  0
 13 14  2  3
 14  9  1  0
 14 15  1  0
  8 16  1  0
 16 17  2  3
 17 18  1  0
 18 19  2  3
 19 20  1  0
 20 21  2  3
 21 16  1  0
 19 22  1  0
 22 23  2  3
 23 24  1  0
 24 25  2  3
 25 18  1  0
 24 26  1  0
 26 27  2  3
 27 28  1  0
 28 29  2  3
 29 30  1  0
 30 31  2  3
 31 26  1  0
  2 32  1  0
M  END
> <smiles>
CC1(CC(C1)C2=NC(=C3N2C=CN=C3N)C4=CC5=C(C=C4)C=CC(=N5)C6=CC=CC=C6)O

> <facility_reagent_id>
HMSL10135

> <salt_id>
101

> <chemical_name>
OSI 906

> <inchi>
InChI=1S/C26H23N5O/c1-26(32)14-19(15-26)25-30-22(23-24(27)28-11-12-31(23)25)18-8-7-17-9-10-20(29-21(17)13-18)16-5-3-2-4-6-16/h2-13,19,32H,14-15H2,1H3,(H2,27,28)

> <inchi_key>

> <chebi_id>

> <lincs_id>

> <pubchem_cid>
n/a

> <chembl_id>
n/a

> <molecular_mass>
421.49

> <molecular_formula>
C26H23N5O

$$$$

  SciTegic08031211342D

 19 20  0  0  0  0            999 V2000
    0.0000    0.0000    0.0000 C   0  0
    0.0000    0.0000    0.0000 C   0  0
    0.0000    0.0000    0.0000 C   0  0
    0.0000    0.0000    0.0000 C   0  0
    0.0000    0.0000    0.0000 C   0  0
    0.0000    0.0000    0.0000 C   0  0
    0.0000    0.0000    0.0000 C   0  0
    0.0000    0.0000    0.0000 C   0  0
    0.0000    0.0000    0.0000 C   0  0
    0.0000    0.0000    0.0000 C   0  0
    0.0000    0.0000    0.0000 S   0  0
    0.0000    0.0000    0.0000 N   0  0
    0.0000    0.0000    0.0000 C   0  0
    0.0000    0.0000    0.0000 O   0  0
    0.0000    0.0000    0.0000 N   0  0
    0.0000    0.0000    0.0000 C   0  0
    0.0000    0.0000    0.0000 O   0  0
    0.0000    0.0000    0.0000 N   0  0
    0.0000    0.0000    0.0000 F   0  0
  1  2  2  3
  2  3  1  0
  3  4  2  3
  4  5  1  0
  5  6  2  3
  6  1  1  0
  6  7  1  0
  7  8  2  3
  8  9  1  0
  9 10  2  3
 10 11  1  0
 11  7  1  0
 10 12  1  0
 12 13  1  0
 13 14  2  0
 13 15  1  0
  9 16  1  0
 16 17  2  0
 16 18  1  0
  3 19  1  0
M  END
> <smiles>
C1=CC(=CC=C1C2=CC(=C(S2)NC(=O)N)C(=O)N)F

> <facility_reagent_id>
HMSL10136

> <salt_id>
101

> <chemical_name>
TPCA-1

> <inchi>
InChI=1S/C12H10FN3O2S/c13-7-3-1-6(2-4-7)9-5-8(10(14)17)11(19-9)16-12(15)18/h1-5H,(H2,14,17)(H3,15,16,18)

> <inchi_key>

> <chebi_id>

> <lincs_id>

> <pubchem_cid>
n/a

> <chembl_id>
n/a

> <molecular_mass>
279.29

> <molecular_formula>
C12H10FN3O2S

$$$$

  SciTegic08031211342D

 29 31  0  0  0  0            999 V2000
    0.0000    0.0000    0.0000 C   0  0
    0.0000    0.0000    0.0000 C   0  0
    0.0000    0.0000    0.0000 C   0  0
    0.0000    0.0000    0.0000 C   0  0
    0.0000    0.0000    0.0000 N   0  0
    0.0000    0.0000    0.0000 C   0  0
    0.0000    0.0000    0.0000 C   0  0
    0.0000    0.0000    0.0000 O   0  0
    0.0000    0.0000    0.0000 N   0  0
    0.0000    0.0000    0.0000 C   0  0
    0.0000    0.0000    0.0000 C   0  0
    0.0000    0.0000    0.0000 C   0  0
    0.0000    0.0000    0.0000 C   0  0
    0.0000    0.0000    0.0000 C   0  0
    0.0000    0.0000    0.0000 C   0  0
    0.0000    0.0000    0.0000 C   0  0
    0.0000    0.0000    0.0000 C   0  0
    0.0000    0.0000    0.0000 C   0  0
    0.0000    0.0000    0.0000 C   0  0
    0.0000    0.0000    0.0000 S   0  0
    0.0000    0.0000    0.0000 C   0  0
    0.0000    0.0000    0.0000 O   0  0
    0.0000    0.0000    0.0000 O   0  0
    0.0000    0.0000    0.0000 O   0  0
    0.0000    0.0000    0.0000 C   0  0
    0.0000    0.0000    0.0000 C   0  0
    0.0000    0.0000    0.0000 O   0  0
    0.0000    0.0000    0.0000 O   0  0
    0.0000    0.0000    0.0000 Br  0  0
  1  2  2  3
  2  3  1  0
  3  4  2  3
  4  5  1  0
  5  6  2  3
  6  1  1  0
  3  7  1  0
  7  8  2  0
  7  9  1  0
  9 10  1  0
 10 11  2  3
 11 12  1  0
 12 13  2  3
 13 14  1  0
 14 15  2  3
 15 10  1  0
 13 16  1  0
 16 17  2  3
 17 18  1  0
 18 19  2  3
 19 20  1  0
 20 16  1  0
 19 21  1  0
 21 22  2  0
 21 23  1  0
 18 24  1  0
 24 25  1  0
 25 26  1  0
 26 27  2  0
 26 28  1  0
 17 29  1  0
M  END
> <smiles>
C1=CC(=CN=C1)C(=O)NC2=CC=C(C=C2)C3=C(C(=C(S3)C(=O)O)OCC(=O)O)Br

> <facility_reagent_id>
HMSL10137

> <salt_id>
101

> <chemical_name>
BMS509744; BMS-509744

> <inchi>
InChI=1S/C19H13BrN2O6S/c20-14-15(28-9-13(23)24)17(19(26)27)29-16(14)10-3-5-12(6-4-10)22-18(25)11-2-1-7-21-8-11/h1-8H,9H2,(H,22,25)(H,23,24)(H,26,27)

> <inchi_key>

> <chebi_id>

> <lincs_id>

> <pubchem_cid>
n/a

> <chembl_id>
n/a

> <molecular_mass>
477.29

> <molecular_formula>
C19H13BrN2O6S

$$$$

  SciTegic08031211342D

 28 30  0  0  1  0            999 V2000
    0.0000    0.0000    0.0000 O   0  0
    0.0000    0.0000    0.0000 P   0  0
    0.0000    0.0000    0.0000 O   0  0
    0.0000    0.0000    0.0000 O   0  0
    0.0000    0.0000    0.0000 O   0  0
    0.0000    0.0000    0.0000 N   0  0
    0.0000    0.0000    0.0000 C   0  0
    0.0000    0.0000    0.0000 C   0  0
    0.0000    0.0000    0.0000 C   0  0  1  0  0  0
    0.0000    0.0000    0.0000 N   0  0
    0.0000    0.0000    0.0000 C   0  0
    0.0000    0.0000    0.0000 C   0  0
    0.0000    0.0000    0.0000 C   0  0
    0.0000    0.0000    0.0000 C   0  0
    0.0000    0.0000    0.0000 C   0  0
    0.0000    0.0000    0.0000 C   0  0
    0.0000    0.0000    0.0000 N   0  0
    0.0000    0.0000    0.0000 C   0  0
    0.0000    0.0000    0.0000 N   0  0
    0.0000    0.0000    0.0000 C   0  0
    0.0000    0.0000    0.0000 N   0  0
    0.0000    0.0000    0.0000 C   0  0
    0.0000    0.0000    0.0000 N   0  0
    0.0000    0.0000    0.0000 C   0  0
    0.0000    0.0000    0.0000 C   0  0
    0.0000    0.0000    0.0000 C   0  0
    0.0000    0.0000    0.0000 C   0  0
    0.0000    0.0000    0.0000 C   0  0
  1  2  1  0
  2  3  1  0
  2  4  1  0
  2  5  2  0
  6  7  3  0
  7  8  1  0
  9  8  1  1
  9 10  1  0
 10 11  1  0
 11 12  2  3
 12 13  1  0
 13 14  2  3
 14 15  1  0
 15 16  2  3
 16 17  1  0
 17 18  1  0
 18 14  1  0
 18 19  2  3
 19 20  1  0
 20 21  2  3
 21 13  1  0
 12 22  1  0
 22 23  2  3
 23 10  1  0
  9 24  1  0
 24 25  1  0
 25 26  1  0
 26 27  1  0
 27 28  1  0
 28 24  1  0
M  END
> <smiles>
OP(O)(O)=O.N#CC[C@@H](N1C=C(C2=C3C=CNC3=NC=N2)C=N1)C4CCCC4

> <facility_reagent_id>
HMSL10138

> <salt_id>
101

> <chemical_name>
INCB018424; Ruxolitinib

> <inchi>
InChI=1S/C17H18N6.H3O4P/c18-7-5-15(12-3-1-2-4-12)23-10-13(9-22-23)16-14-6-8-19-17(14)21-11-20-16;1-5(2,3)4/h6,8-12,15H,1-5H2,(H,19,20,21);(H3,1,2,3,4)/t15-;/m1./s1

> <inchi_key>

> <chebi_id>

> <lincs_id>

> <pubchem_cid>
n/a

> <chembl_id>
n/a

> <molecular_mass>
404.36

> <molecular_formula>
C17H21N6O4P

$$$$

  SciTegic08031211342D

 24 26  0  0  0  0            999 V2000
    0.0000    0.0000    0.0000 C   0  0
    0.0000    0.0000    0.0000 N   0  0
    0.0000    0.0000    0.0000 C   0  0
    0.0000    0.0000    0.0000 C   0  0
    0.0000    0.0000    0.0000 C   0  0
    0.0000    0.0000    0.0000 N   0  0
    0.0000    0.0000    0.0000 C   0  0
    0.0000    0.0000    0.0000 C   0  0
    0.0000    0.0000    0.0000 F   0  0
    0.0000    0.0000    0.0000 N   0  0
    0.0000    0.0000    0.0000 C   0  0
    0.0000    0.0000    0.0000 N   0  0
    0.0000    0.0000    0.0000 C   0  0
    0.0000    0.0000    0.0000 N   0  0
    0.0000    0.0000    0.0000 C   0  0
    0.0000    0.0000    0.0000 C   0  0
    0.0000    0.0000    0.0000 C   0  0
    0.0000    0.0000    0.0000 C   0  0
    0.0000    0.0000    0.0000 N   0  0
    0.0000    0.0000    0.0000 N   0  0
    0.0000    0.0000    0.0000 C   0  0
    0.0000    0.0000    0.0000 C   0  0
    0.0000    0.0000    0.0000 N   0  0
    0.0000    0.0000    0.0000 Cl  0  0
  1  2  1  0
  2  3  1  0
  3  4  1  0
  3  5  1  0
  5  6  2  3
  6  7  1  0
  7  8  2  3
  8  9  1  0
  5 10  1  0
 10 11  2  3
 11  8  1  0
  1 12  2  3
 12 13  1  0
 13 14  1  0
 14 15  1  0
 15 16  1  0
 16 17  2  3
 17 18  1  0
 15 19  2  3
 19 20  1  0
 20 17  1  0
 13 21  2  3
 21 22  1  0
 22 23  2  3
 23  1  1  0
 21 24  1  0
M  END
> <smiles>
C1(NC(C)C(=NC=C2F)N=C2)=NC(NC(C=C2C)=NN2)=C(C=N1)Cl

> <facility_reagent_id>
HMSL10139

> <salt_id>
101

> <chemical_name>
AZD-1480

> <inchi>
InChI=1S/C14H14ClFN8/c1-7-3-11(24-23-7)21-13-10(15)6-19-14(22-13)20-8(2)12-17-4-9(16)5-18-12/h3-6,8H,1-2H3,(H3,19,20,21,22,23,24)

> <inchi_key>

> <chebi_id>

> <lincs_id>

> <pubchem_cid>
n/a

> <chembl_id>
n/a

> <molecular_mass>
348.77

> <molecular_formula>
C14H14ClFN8

$$$$

  SciTegic08031211342D

 31 34  0  0  0  0            999 V2000
    0.0000    0.0000    0.0000 C   0  0
    0.0000    0.0000    0.0000 C   0  0
    0.0000    0.0000    0.0000 C   0  0
    0.0000    0.0000    0.0000 C   0  0
    0.0000    0.0000    0.0000 C   0  0
    0.0000    0.0000    0.0000 C   0  0
    0.0000    0.0000    0.0000 C   0  0
    0.0000    0.0000    0.0000 C   0  0
    0.0000    0.0000    0.0000 C   0  0
    0.0000    0.0000    0.0000 N   0  0
    0.0000    0.0000    0.0000 N   0  0
    0.0000    0.0000    0.0000 C   0  0
    0.0000    0.0000    0.0000 N   0  0
    0.0000    0.0000    0.0000 C   0  0
    0.0000    0.0000    0.0000 C   0  0
    0.0000    0.0000    0.0000 C   0  0
    0.0000    0.0000    0.0000 C   0  0
    0.0000    0.0000    0.0000 N   0  0
    0.0000    0.0000    0.0000 C   0  0
    0.0000    0.0000    0.0000 C   0  0
    0.0000    0.0000    0.0000 O   0  0
    0.0000    0.0000    0.0000 C   0  0
    0.0000    0.0000    0.0000 C   0  0
    0.0000    0.0000    0.0000 C   0  0
    0.0000    0.0000    0.0000 C   0  0
    0.0000    0.0000    0.0000 C   0  0
    0.0000    0.0000    0.0000 N   0  0
    0.0000    0.0000    0.0000 C   0  0
    0.0000    0.0000    0.0000 C   0  0
    0.0000    0.0000    0.0000 N   0  0
    0.0000    0.0000    0.0000 O   0  0
  1  2  1  0
  2  3  2  3
  3  4  1  0
  4  5  2  3
  5  6  1  0
  6  1  2  3
  6  7  1  0
  7  8  1  0
  8  9  2  3
  9 10  1  0
  7 11  2  3
 11 12  1  0
 12 10  2  3
 12 13  1  0
 13 14  1  0
 14 15  2  3
 15 16  1  0
 16 17  2  3
 17 18  1  0
 18 19  1  0
 19 20  1  0
 20 21  1  0
 18 22  1  0
 22 23  1  0
 23 21  1  0
 14 24  1  0
 24 25  2  3
 25 17  1  0
  3 26  1  0
 26 27  1  0
 27 28  1  0
 28 29  1  0
 29 30  3  0
 26 31  2  0
M  END
> <smiles>
C1C=C(C=CC=1C(C=CN1)=NC=1NC(=CC=C1N(CCO2)CC2)C=C1)C(NCC#N)=O

> <facility_reagent_id>
HMSL10140

> <salt_id>
101

> <chemical_name>
CYT387

> <inchi>
InChI=1S/C23H22N6O2/c24-10-12-25-22(30)18-3-1-17(2-4-18)21-9-11-26-23(28-21)27-19-5-7-20(8-6-19)29-13-15-31-16-14-29/h1-9,11H,12-16H2,(H,25,30)(H,26,27,28)

> <inchi_key>

> <chebi_id>

> <lincs_id>

> <pubchem_cid>
n/a

> <chembl_id>
n/a

> <molecular_mass>
414.46

> <molecular_formula>
C23H22N6O2

$$$$

  SciTegic08031211342D

 37 40  0  0  0  0            999 V2000
    0.0000    0.0000    0.0000 C   0  0
    0.0000    0.0000    0.0000 C   0  0
    0.0000    0.0000    0.0000 C   0  0
    0.0000    0.0000    0.0000 N   0  0
    0.0000    0.0000    0.0000 C   0  0
    0.0000    0.0000    0.0000 N   0  0
    0.0000    0.0000    0.0000 C   0  0
    0.0000    0.0000    0.0000 N   0  0
    0.0000    0.0000    0.0000 C   0  0
    0.0000    0.0000    0.0000 C   0  0
    0.0000    0.0000    0.0000 C   0  0
    0.0000    0.0000    0.0000 C   0  0
    0.0000    0.0000    0.0000 C   0  0
    0.0000    0.0000    0.0000 C   0  0
    0.0000    0.0000    0.0000 S   0  0
    0.0000    0.0000    0.0000 O   0  0
    0.0000    0.0000    0.0000 O   0  0
    0.0000    0.0000    0.0000 N   0  0
    0.0000    0.0000    0.0000 C   0  0
    0.0000    0.0000    0.0000 C   0  0
    0.0000    0.0000    0.0000 C   0  0
    0.0000    0.0000    0.0000 C   0  0
    0.0000    0.0000    0.0000 N   0  0
    0.0000    0.0000    0.0000 C   0  0
    0.0000    0.0000    0.0000 C   0  0
    0.0000    0.0000    0.0000 C   0  0
    0.0000    0.0000    0.0000 C   0  0
    0.0000    0.0000    0.0000 C   0  0
    0.0000    0.0000    0.0000 C   0  0
    0.0000    0.0000    0.0000 O   0  0
    0.0000    0.0000    0.0000 C   0  0
    0.0000    0.0000    0.0000 C   0  0
    0.0000    0.0000    0.0000 N   0  0
    0.0000    0.0000    0.0000 C   0  0
    0.0000    0.0000    0.0000 C   0  0
    0.0000    0.0000    0.0000 C   0  0
    0.0000    0.0000    0.0000 C   0  0
  1  2  1  0
  2  3  2  3
  3  4  1  0
  4  5  2  3
  5  6  1  0
  6  7  2  3
  7  2  1  0
  7  8  1  0
  8  9  1  0
  9 10  2  3
 10 11  1  0
 11 12  2  3
 12 13  1  0
 13 14  2  3
 14  9  1  0
 11 15  1  0
 15 16  2  0
 15 17  2  0
 15 18  1  0
 18 19  1  0
 19 20  1  0
 19 21  1  0
 19 22  1  0
  5 23  1  0
 23 24  1  0
 24 25  2  3
 25 26  1  0
 26 27  2  3
 27 28  1  0
 28 29  2  3
 29 24  1  0
 27 30  1  0
 30 31  1  0
 31 32  1  0
 32 33  1  0
 33 34  1  0
 34 35  1  0
 35 36  1  0
 36 37  1  0
 37 33  1  0
M  END
> <smiles>
CC1=CN=C(N=C1NC2=CC(=CC=C2)S(=O)(=O)NC(C)(C)C)NC3=CC=C(C=C3)OCCN4CCCC4

> <facility_reagent_id>
HMSL10141

> <salt_id>
101

> <chemical_name>
TG 101348

> <inchi>
InChI=1S/C27H36N6O3S/c1-20-19-28-26(30-21-10-12-23(13-11-21)36-17-16-33-14-5-6-15-33)31-25(20)29-22-8-7-9-24(18-22)37(34,35)32-27(2,3)4/h7-13,18-19,32H,5-6,14-17H2,1-4H3,(H2,28,29,30,31)

> <inchi_key>

> <chebi_id>

> <lincs_id>

> <pubchem_cid>
n/a

> <chembl_id>
n/a

> <molecular_mass>
524.68

> <molecular_formula>
C27H36N6O3S

$$$$

  SciTegic08031211342D

 37 41  0  0  0  0            999 V2000
    0.0000    0.0000    0.0000 C   0  0
    0.0000    0.0000    0.0000 C   0  0
    0.0000    0.0000    0.0000 N   0  0
    0.0000    0.0000    0.0000 C   0  0
    0.0000    0.0000    0.0000 C   0  0
    0.0000    0.0000    0.0000 C   0  0
    0.0000    0.0000    0.0000 C   0  0
    0.0000    0.0000    0.0000 C   0  0
    0.0000    0.0000    0.0000 N   0  0
    0.0000    0.0000    0.0000 C   0  0
    0.0000    0.0000    0.0000 C   0  0
    0.0000    0.0000    0.0000 C   0  0
    0.0000    0.0000    0.0000 N   0  0
    0.0000    0.0000    0.0000 C   0  0
    0.0000    0.0000    0.0000 C   0  0
    0.0000    0.0000    0.0000 C   0  0
    0.0000    0.0000    0.0000 O   0  0
    0.0000    0.0000    0.0000 C   0  0
    0.0000    0.0000    0.0000 N   0  0
    0.0000    0.0000    0.0000 C   0  0
    0.0000    0.0000    0.0000 C   0  0
    0.0000    0.0000    0.0000 C   0  0
    0.0000    0.0000    0.0000 C   0  0
    0.0000    0.0000    0.0000 I   0  0
    0.0000    0.0000    0.0000 C   0  0
    0.0000    0.0000    0.0000 C   0  0
    0.0000    0.0000    0.0000 F   0  0
    0.0000    0.0000    0.0000 N   0  0
    0.0000    0.0000    0.0000 C   0  0
    0.0000    0.0000    0.0000 C   0  0
    0.0000    0.0000    0.0000 C   0  0
    0.0000    0.0000    0.0000 C   0  0
    0.0000    0.0000    0.0000 O   0  0
    0.0000    0.0000    0.0000 C   0  0
    0.0000    0.0000    0.0000 O   0  0
    0.0000    0.0000    0.0000 C   0  0
    0.0000    0.0000    0.0000 O   0  0
  1  2  1  0
  2  3  1  0
  3  4  1  0
  4  5  2  3
  5  6  1  0
  6  7  2  3
  7  8  1  0
  8  9  1  0
  9 10  1  0
 10 11  1  0
 11 12  1  0
 12 13  1  0
 13 14  1  0
 14 15  1  0
 15 16  1  0
 16 14  1  0
 12 17  2  0
 11 18  2  3
 18 19  1  0
 19 20  1  0
 20 21  2  3
 21 22  1  0
 22 23  2  3
 23 24  1  0
 23 25  1  0
 25 26  2  3
 26 20  1  0
 26 27  1  0
 18 28  1  0
 28 29  1  0
 10 30  2  3
 30 31  1  0
 30 32  1  0
 32 28  1  0
 32 33  2  0
  9 34  1  0
 34 13  1  0
 34 35  2  0
  8 36  2  3
 36  4  1  0
  2 37  2  0
M  END
> <smiles>
CC(NC1=CC=CC(N(C(C(C(N2C3CC3)=O)=C(NC4=CC=C(I)C=C4F)N5C)=C(C)C5=O)C2=O)=C1)=O

> <facility_reagent_id>
HMSL10142

> <salt_id>
101

> <chemical_name>
GSK-1120212; GSK1120212; JTP-74057

> <inchi>
InChI=1S/C26H23FIN5O4/c1-13-22-21(23(31(3)24(13)35)30-20-10-7-15(28)11-19(20)27)25(36)33(17-8-9-17)26(37)32(22)18-6-4-5-16(12-18)29-14(2)34/h4-7,10-12,17,30H,8-9H2,1-3H3,(H,29,34)

> <inchi_key>

> <chebi_id>

> <lincs_id>

> <pubchem_cid>
n/a

> <chembl_id>
n/a

> <molecular_mass>
615.39

> <molecular_formula>
C26H23FIN5O4

$$$$

  SciTegic08031211342D

 36 39  0  0  0  0            999 V2000
    0.0000    0.0000    0.0000 O   0  0
    0.0000    0.0000    0.0000 C   0  0
    0.0000    0.0000    0.0000 C   0  0
    0.0000    0.0000    0.0000 C   0  0
    0.0000    0.0000    0.0000 N   0  0
    0.0000    0.0000    0.0000 C   0  0
    0.0000    0.0000    0.0000 C   0  0
    0.0000    0.0000    0.0000 C   0  0
    0.0000    0.0000    0.0000 C   0  0
    0.0000    0.0000    0.0000 C   0  0
    0.0000    0.0000    0.0000 F   0  0
    0.0000    0.0000    0.0000 C   0  0
    0.0000    0.0000    0.0000 O   0  0
    0.0000    0.0000    0.0000 C   0  0
    0.0000    0.0000    0.0000 C   0  0
    0.0000    0.0000    0.0000 C   0  0
    0.0000    0.0000    0.0000 N   0  0
    0.0000    0.0000    0.0000 C   0  0
    0.0000    0.0000    0.0000 N   0  0
    0.0000    0.0000    0.0000 C   0  0
    0.0000    0.0000    0.0000 Cl  0  0
    0.0000    0.0000    0.0000 O   0  0
    0.0000    0.0000    0.0000 C   0  0
    0.0000    0.0000    0.0000 O   0  0
    0.0000    0.0000    0.0000 C   0  0
    0.0000    0.0000    0.0000 C   0  0
    0.0000    0.0000    0.0000 C   0  0
    0.0000    0.0000    0.0000 C   0  0
    0.0000    0.0000    0.0000 N   0  0
    0.0000    0.0000    0.0000 C   0  0
    0.0000    0.0000    0.0000 C   0  0
    0.0000    0.0000    0.0000 C   0  0
    0.0000    0.0000    0.0000 C   0  0
    0.0000    0.0000    0.0000 F   0  0
    0.0000    0.0000    0.0000 C   0  0
    0.0000    0.0000    0.0000 C   0  0
  1  2  2  0
  2  3  1  0
  3  4  1  0
  4  5  1  0
  5  6  1  0
  6  7  2  3
  7  8  1  0
  8  9  2  3
  9 10  1  0
 10 11  1  0
 10 12  2  3
 12  6  1  0
  9 13  1  0
 13 14  1  0
 14 15  2  3
 15 16  1  0
 16 17  2  3
 17 18  1  0
 18 19  1  0
 18 20  2  3
 20 14  1  0
 20 21  1  0
  4 22  2  0
  3 23  2  3
 23 24  1  0
 24 25  1  0
 25 26  1  0
 23 27  1  0
 27 28  2  3
 28 29  1  0
 29  2  1  0
 29 30  1  0
 30 31  2  3
 31 32  1  0
 32 33  2  3
 33 34  1  0
 33 35  1  0
 35 36  2  3
 36 30  1  0
M  END
> <smiles>
O=C1C(C(NC2=CC=C(C(F)=C2)OC3=CC=NC(N)=C3Cl)=O)=C(OCC)C=CN1C4=CC=C(F)C=C4

> <facility_reagent_id>
HMSL10143

> <salt_id>
101

> <chemical_name>
BMS 777607

> <inchi>
InChI=1S/C25H19ClF2N4O4/c1-2-35-19-10-12-32(16-6-3-14(27)4-7-16)25(34)21(19)24(33)31-15-5-8-18(17(28)13-15)36-20-9-11-30-23(29)22(20)26/h3-13H,2H2,1H3,(H2,29,30)(H,31,33)

> <inchi_key>

> <chebi_id>

> <lincs_id>

> <pubchem_cid>
n/a

> <chembl_id>
n/a

> <molecular_mass>
512.89

> <molecular_formula>
C25H19ClF2N4O4

$$$$

  SciTegic08031211342D

 32 36  0  0  0  0            999 V2000
    0.0000    0.0000    0.0000 C   0  0
    0.0000    0.0000    0.0000 C   0  0
    0.0000    0.0000    0.0000 C   0  0
    0.0000    0.0000    0.0000 C   0  0
    0.0000    0.0000    0.0000 O   0  0
    0.0000    0.0000    0.0000 N   0  0
    0.0000    0.0000    0.0000 C   0  0
    0.0000    0.0000    0.0000 C   0  0
    0.0000    0.0000    0.0000 N   0  0
    0.0000    0.0000    0.0000 C   0  0
    0.0000    0.0000    0.0000 C   0  0
    0.0000    0.0000    0.0000 C   0  0
    0.0000    0.0000    0.0000 O   0  0
    0.0000    0.0000    0.0000 C   0  0
    0.0000    0.0000    0.0000 C   0  0
    0.0000    0.0000    0.0000 C   0  0
    0.0000    0.0000    0.0000 C   0  0
    0.0000    0.0000    0.0000 C   0  0
    0.0000    0.0000    0.0000 C   0  0
    0.0000    0.0000    0.0000 C   0  0
    0.0000    0.0000    0.0000 C   0  0
    0.0000    0.0000    0.0000 N   0  0
    0.0000    0.0000    0.0000 N   0  0
    0.0000    0.0000    0.0000 C   0  0
    0.0000    0.0000    0.0000 O   0  0
    0.0000    0.0000    0.0000 C   0  0
    0.0000    0.0000    0.0000 C   0  0
    0.0000    0.0000    0.0000 C   0  0
    0.0000    0.0000    0.0000 C   0  0
    0.0000    0.0000    0.0000 C   0  0
    0.0000    0.0000    0.0000 C   0  0
    0.0000    0.0000    0.0000 F   0  0
  1  2  1  0
  2  3  1  0
  3  1  1  0
  3  4  1  0
  4  5  2  0
  4  6  1  0
  6  7  1  0
  7  8  1  0
  8  9  1  0
  9 10  1  0
 10 11  1  0
 11  6  1  0
  9 12  1  0
 12 13  2  0
 12 14  1  0
 14 15  2  3
 15 16  1  0
 16 17  2  3
 17 18  1  0
 18 19  2  3
 19 14  1  0
 18 20  1  0
 20 21  1  0
 21 22  2  3
 22 23  1  0
 23 24  1  0
 24 25  2  0
 24 26  1  0
 26 27  2  3
 27 28  1  0
 28 29  2  3
 29 30  1  0
 30 31  2  3
 31 26  1  0
 31 21  1  0
 15 32  1  0
M  END
> <smiles>
C1CC1C(=O)N2CCN(CC2)C(=O)C3=C(C=CC(=C3)CC4=NNC(=O)C5=CC=CC=C54)F

> <facility_reagent_id>
HMSL10144

> <salt_id>
101

> <chemical_name>
Olaparib; AZD2281; KU-0059436

> <inchi>
InChI=1S/C24H23FN4O3/c25-20-8-5-15(14-21-17-3-1-2-4-18(17)22(30)27-26-21)13-19(20)24(32)29-11-9-28(10-12-29)23(31)16-6-7-16/h1-5,8,13,16H,6-7,9-12,14H2,(H,27,30)

> <inchi_key>

> <chebi_id>

> <lincs_id>

> <pubchem_cid>
n/a

> <chembl_id>
n/a

> <molecular_mass>
434.46

> <molecular_formula>
C24H23FN4O3

$$$$

  SciTegic08031211342D

 22 22  0  0  1  0            999 V2000
    0.0000    0.0000    0.0000 Cl  0  0
    0.0000    0.0000    0.0000 H   0  0
    0.0000    0.0000    0.0000 Cl  0  0
    0.0000    0.0000    0.0000 H   0  0
    0.0000    0.0000    0.0000 C   0  0
    0.0000    0.0000    0.0000 C   0  0  2  0  0  0
    0.0000    0.0000    0.0000 C   0  0
    0.0000    0.0000    0.0000 C   0  0
    0.0000    0.0000    0.0000 C   0  0
    0.0000    0.0000    0.0000 N   0  0
    0.0000    0.0000    0.0000 C   0  0
    0.0000    0.0000    0.0000 N   0  0
    0.0000    0.0000    0.0000 C   0  0
    0.0000    0.0000    0.0000 C   0  0
    0.0000    0.0000    0.0000 C   0  0
    0.0000    0.0000    0.0000 C   0  0
    0.0000    0.0000    0.0000 C   0  0
    0.0000    0.0000    0.0000 C   0  0
    0.0000    0.0000    0.0000 N   0  0
    0.0000    0.0000    0.0000 O   0  0
    0.0000    0.0000    0.0000 C   0  0
    0.0000    0.0000    0.0000 N   0  0
  1  2  1  0
  3  4  1  0
  6  5  1  1
  6  7  1  0
  7  8  1  0
  8  9  1  0
  9 10  1  0
 10  6  1  0
  6 11  1  0
 11 12  2  3
 12 13  1  0
 13 14  2  3
 14 15  1  0
 15 16  2  3
 16 17  1  0
 17 18  1  0
 18 19  1  0
 18 20  2  0
 17 21  2  3
 21 13  1  0
 21 22  1  0
 22 11  1  0
M  END
> <smiles>
Cl[H].Cl[H].C[C@@]1(CCCN1)C1=NC2=CC=CC(C(N)=O)=C2N1

> <facility_reagent_id>
HMSL10145

> <salt_id>
101

> <chemical_name>
Veliparib; ABT-888

> <inchi>
InChI=1S/C13H16N4O.2ClH/c1-13(6-3-7-15-13)12-16-9-5-2-4-8(11(14)18)10(9)17-12;;/h2,4-5,15H,3,6-7H2,1H3,(H2,14,18)(H,16,17);2*1H/t13-;;/m1../s1

> <inchi_key>

> <chebi_id>

> <lincs_id>

> <pubchem_cid>
n/a

> <chembl_id>
n/a

> <molecular_mass>
317.21

> <molecular_formula>
C13H18Cl2N4O

$$$$

  SciTegic08031211342D

 36 40  0  0  0  0            999 V2000
    0.0000    0.0000    0.0000 C   0  0
    0.0000    0.0000    0.0000 O   0  0
    0.0000    0.0000    0.0000 C   0  0
    0.0000    0.0000    0.0000 N   0  0
    0.0000    0.0000    0.0000 C   0  0
    0.0000    0.0000    0.0000 C   0  0
    0.0000    0.0000    0.0000 C   0  0
    0.0000    0.0000    0.0000 C   0  0
    0.0000    0.0000    0.0000 N   0  0
    0.0000    0.0000    0.0000 S   0  0
    0.0000    0.0000    0.0000 O   0  0
    0.0000    0.0000    0.0000 O   0  0
    0.0000    0.0000    0.0000 C   0  0
    0.0000    0.0000    0.0000 C   0  0
    0.0000    0.0000    0.0000 C   0  0
    0.0000    0.0000    0.0000 C   0  0
    0.0000    0.0000    0.0000 C   0  0
    0.0000    0.0000    0.0000 C   0  0
    0.0000    0.0000    0.0000 F   0  0
    0.0000    0.0000    0.0000 F   0  0
    0.0000    0.0000    0.0000 C   0  0
    0.0000    0.0000    0.0000 C   0  0
    0.0000    0.0000    0.0000 C   0  0
    0.0000    0.0000    0.0000 C   0  0
    0.0000    0.0000    0.0000 C   0  0
    0.0000    0.0000    0.0000 C   0  0
    0.0000    0.0000    0.0000 N   0  0
    0.0000    0.0000    0.0000 C   0  0
    0.0000    0.0000    0.0000 C   0  0
    0.0000    0.0000    0.0000 C   0  0
    0.0000    0.0000    0.0000 C   0  0
    0.0000    0.0000    0.0000 C   0  0
    0.0000    0.0000    0.0000 N   0  0
    0.0000    0.0000    0.0000 N   0  0
    0.0000    0.0000    0.0000 C   0  0
    0.0000    0.0000    0.0000 C   0  0
  1  2  1  0
  2  3  1  0
  3  4  2  3
  4  5  1  0
  5  6  2  3
  6  7  1  0
  7  8  2  3
  8  3  1  0
  8  9  1  0
  9 10  1  0
 10 11  2  0
 10 12  2  0
 10 13  1  0
 13 14  2  3
 14 15  1  0
 15 16  2  3
 16 17  1  0
 17 18  2  3
 18 13  1  0
 16 19  1  0
 14 20  1  0
  7 21  1  0
 21 22  2  3
 22 23  1  0
 23 24  2  3
 24 25  1  0
 25 26  2  3
 26 27  1  0
 27 28  2  3
 28 23  1  0
 28 29  1  0
 29 30  2  3
 30 21  1  0
 24 31  1  0
 31 32  2  3
 32 33  1  0
 33 34  2  3
 34 35  1  0
 35 36  2  3
 36 31  1  0
M  END
> <smiles>
COC1=NC=CC(=C1NS(=O)(=O)C2=C(C=C(C=C2)F)F)C3=CC4=C(C=CN=C4C=C3)C5=CN=NC=C5

> <facility_reagent_id>
HMSL10146

> <salt_id>
101

> <chemical_name>
GSK2126458

> <inchi>
InChI=1S/C25H17F2N5O3S/c1-35-25-24(32-36(33,34)23-5-3-17(26)13-21(23)27)19(8-10-29-25)15-2-4-22-20(12-15)18(7-9-28-22)16-6-11-30-31-14-16/h2-14,32H,1H3

> <inchi_key>

> <chebi_id>

> <lincs_id>

> <pubchem_cid>
n/a

> <chembl_id>
n/a

> <molecular_mass>
505.5

> <molecular_formula>
C25H17F2N5O3S

$$$$

  SciTegic08031211342D

 29 32  0  0  0  0            999 V2000
    0.0000    0.0000    0.0000 C   0  0
    0.0000    0.0000    0.0000 N   0  0
    0.0000    0.0000    0.0000 C   0  0
    0.0000    0.0000    0.0000 C   0  0
    0.0000    0.0000    0.0000 O   0  0
    0.0000    0.0000    0.0000 C   0  0
    0.0000    0.0000    0.0000 C   0  0
    0.0000    0.0000    0.0000 N   0  0
    0.0000    0.0000    0.0000 C   0  0
    0.0000    0.0000    0.0000 C   0  0
    0.0000    0.0000    0.0000 C   0  0
    0.0000    0.0000    0.0000 N   0  0
    0.0000    0.0000    0.0000 N   0  0
    0.0000    0.0000    0.0000 C   0  0
    0.0000    0.0000    0.0000 C   0  0
    0.0000    0.0000    0.0000 O   0  0
    0.0000    0.0000    0.0000 C   0  0
    0.0000    0.0000    0.0000 C   0  0
    0.0000    0.0000    0.0000 C   0  0
    0.0000    0.0000    0.0000 C   0  0
    0.0000    0.0000    0.0000 C   0  0
    0.0000    0.0000    0.0000 F   0  0
    0.0000    0.0000    0.0000 F   0  0
    0.0000    0.0000    0.0000 F   0  0
    0.0000    0.0000    0.0000 C   0  0
    0.0000    0.0000    0.0000 C   0  0
    0.0000    0.0000    0.0000 N   0  0
    0.0000    0.0000    0.0000 C   0  0
    0.0000    0.0000    0.0000 N   0  0
  1  2  1  0
  2  3  1  0
  3  4  1  0
  4  5  1  0
  2  6  1  0
  6  7  1  0
  7  5  1  0
  1  8  2  3
  8  9  1  0
  9 10  2  3
 10 11  1  0
 11 12  2  3
 12  1  1  0
 11 13  1  0
 13 14  1  0
 14 15  1  0
 15 16  1  0
 13 17  1  0
 17 18  1  0
 18 16  1  0
  9 19  1  0
 19 20  2  3
 20 21  1  0
 21 22  1  0
 21 23  1  0
 21 24  1  0
 20 25  1  0
 25 26  2  3
 26 27  1  0
 27 28  2  3
 28 19  1  0
 26 29  1  0
M  END
> <smiles>
C1(N(CCO2)CC2)=NC(=CC(=N1)N(CCO1)CC1)C1=C(C(F)(F)F)C=C(N=C1)N

> <facility_reagent_id>
HMSL10147

> <salt_id>
101

> <chemical_name>
NVP-BKM120

> <inchi>
InChI=1S/C18H21F3N6O2/c19-18(20,21)13-9-15(22)23-11-12(13)14-10-16(26-1-5-28-6-2-26)25-17(24-14)27-3-7-29-8-4-27/h9-11H,1-8H2,(H2,22,23)

> <inchi_key>

> <chebi_id>

> <lincs_id>

> <pubchem_cid>
n/a

> <chembl_id>
n/a

> <molecular_mass>
410.39

> <molecular_formula>
C18H21F3N6O2

$$$$

  SciTegic08031211342D

 31 35  0  0  0  0            999 V2000
    0.0000    0.0000    0.0000 C   0  0
    0.0000    0.0000    0.0000 C   0  0
    0.0000    0.0000    0.0000 C   0  0
    0.0000    0.0000    0.0000 C   0  0
    0.0000    0.0000    0.0000 C   0  0
    0.0000    0.0000    0.0000 C   0  0
    0.0000    0.0000    0.0000 C   0  0
    0.0000    0.0000    0.0000 S   0  0
    0.0000    0.0000    0.0000 O   0  0
    0.0000    0.0000    0.0000 O   0  0
    0.0000    0.0000    0.0000 N   0  0
    0.0000    0.0000    0.0000 C   0  0
    0.0000    0.0000    0.0000 N   0  0
    0.0000    0.0000    0.0000 C   0  0
    0.0000    0.0000    0.0000 C   0  0
    0.0000    0.0000    0.0000 C   0  0
    0.0000    0.0000    0.0000 C   0  0
    0.0000    0.0000    0.0000 C   0  0
    0.0000    0.0000    0.0000 C   0  0
    0.0000    0.0000    0.0000 N   0  0
    0.0000    0.0000    0.0000 C   0  0
    0.0000    0.0000    0.0000 N   0  0
    0.0000    0.0000    0.0000 C   0  0
    0.0000    0.0000    0.0000 C   0  0
    0.0000    0.0000    0.0000 C   0  0
    0.0000    0.0000    0.0000 C   0  0
    0.0000    0.0000    0.0000 C   0  0
    0.0000    0.0000    0.0000 N   0  0
    0.0000    0.0000    0.0000 S   0  0
    0.0000    0.0000    0.0000 N   0  0
    0.0000    0.0000    0.0000 C   0  0
  1  2  1  0
  2  3  2  3
  3  4  1  0
  4  5  2  3
  5  6  1  0
  6  7  2  3
  7  2  1  0
  5  8  1  0
  8  9  2  0
  8 10  2  0
  8 11  1  0
 11 12  1  0
 12 13  2  3
 13 14  1  0
 14 15  2  3
 15 16  1  0
 16 17  2  3
 17 18  1  0
 18 19  2  3
 19 14  1  0
 19 20  1  0
 20 21  2  3
 21 12  1  0
 21 22  1  0
 22 23  1  0
 23 24  2  3
 24 25  1  0
 25 26  2  3
 26 27  1  0
 27 28  2  3
 28 29  1  0
 29 30  1  0
 30 31  2  3
 31 27  1  0
 31 23  1  0
M  END
> <smiles>
CC1=CC=C(C=C1)S(=O)(=O)NC2=NC3=CC=CC=C3N=C2NC4=CC=CC5=NSN=C54

> <facility_reagent_id>
HMSL10148

> <salt_id>
101

> <chemical_name>
XL147; SAR245408

> <inchi>
InChI=1S/C21H16N6O2S2/c1-13-9-11-14(12-10-13)31(28,29)27-21-20(22-15-5-2-3-6-16(15)23-21)24-17-7-4-8-18-19(17)26-30-25-18/h2-12H,1H3,(H,22,24)(H,23,27)

> <inchi_key>

> <chebi_id>

> <lincs_id>

> <pubchem_cid>
n/a

> <chembl_id>
n/a

> <molecular_mass>
448.52

> <molecular_formula>
C21H16N6O2S2

$$$$

  SciTegic08031211342D

 25 25  0  0  1  0            999 V2000
    0.0000    0.0000    0.0000 Cl  0  0
    0.0000    0.0000    0.0000 H   0  0
    0.0000    0.0000    0.0000 Cl  0  0
    0.0000    0.0000    0.0000 H   0  0
    0.0000    0.0000    0.0000 C   0  0
    0.0000    0.0000    0.0000 C   0  0  1  0  0  0
    0.0000    0.0000    0.0000 N   0  0
    0.0000    0.0000    0.0000 C   0  0
    0.0000    0.0000    0.0000 C   0  0
    0.0000    0.0000    0.0000 C   0  0
    0.0000    0.0000    0.0000 C   0  0
    0.0000    0.0000    0.0000 C   0  0
    0.0000    0.0000    0.0000 C   0  0
    0.0000    0.0000    0.0000 C   0  0
    0.0000    0.0000    0.0000 O   0  0
    0.0000    0.0000    0.0000 N   0  0
    0.0000    0.0000    0.0000 C   0  0
    0.0000    0.0000    0.0000 C   0  0
    0.0000    0.0000    0.0000 C   0  0
    0.0000    0.0000    0.0000 C   0  0
    0.0000    0.0000    0.0000 N   0  0
    0.0000    0.0000    0.0000 C   0  0
    0.0000    0.0000    0.0000 N   0  0
    0.0000    0.0000    0.0000 C   0  0
    0.0000    0.0000    0.0000 C   0  0
  1  2  1  0
  3  4  1  0
  6  5  1  1
  6  7  1  0
  6  8  1  0
  8  9  2  3
  9 10  1  0
 10 11  2  3
 11 12  1  0
 12 13  2  3
 13  8  1  0
 11 14  1  0
 14 15  2  0
 14 16  1  0
 16 17  1  0
 17 18  2  3
 18 19  1  0
 19 20  2  3
 20 21  1  0
 21 22  1  0
 22 18  1  0
 22 23  2  3
 23 24  1  0
 24 25  2  3
 25 17  1  0
M  END
> <smiles>
Cl[H].Cl[H].C[C@@H](N)C1=CC=C(C=C1)C(=O)NC1=C2C=CNC2=NC=C1

> <facility_reagent_id>
HMSL10149

> <salt_id>
101

> <chemical_name>
Y39983

> <inchi>
InChI=1S/C16H16N4O.2ClH/c1-10(17)11-2-4-12(5-3-11)16(21)20-14-7-9-19-15-13(14)6-8-18-15;;/h2-10H,17H2,1H3,(H2,18,19,20,21);2*1H/t10-;;/m1../s1

> <inchi_key>

> <chebi_id>

> <lincs_id>

> <pubchem_cid>
n/a

> <chembl_id>
n/a

> <molecular_mass>
353.25

> <molecular_formula>
C16H18Cl2N4O

$$$$

  SciTegic08031211342D

 39 43  0  0  0  0            999 V2000
    0.0000    0.0000    0.0000 C   0  0
    0.0000    0.0000    0.0000 C   0  0
    0.0000    0.0000    0.0000 C   0  0
    0.0000    0.0000    0.0000 C   0  0
    0.0000    0.0000    0.0000 C   0  0
    0.0000    0.0000    0.0000 C   0  0
    0.0000    0.0000    0.0000 C   0  0
    0.0000    0.0000    0.0000 C   0  0
    0.0000    0.0000    0.0000 O   0  0
    0.0000    0.0000    0.0000 N   0  0
    0.0000    0.0000    0.0000 C   0  0
    0.0000    0.0000    0.0000 C   0  0
    0.0000    0.0000    0.0000 C   0  0
    0.0000    0.0000    0.0000 C   0  0
    0.0000    0.0000    0.0000 C   0  0
    0.0000    0.0000    0.0000 C   0  0
    0.0000    0.0000    0.0000 C   0  0
    0.0000    0.0000    0.0000 N   0  0
    0.0000    0.0000    0.0000 C   0  0
    0.0000    0.0000    0.0000 C   0  0
    0.0000    0.0000    0.0000 N   0  0
    0.0000    0.0000    0.0000 C   0  0
    0.0000    0.0000    0.0000 C   0  0
    0.0000    0.0000    0.0000 C   0  0
    0.0000    0.0000    0.0000 C   0  0
    0.0000    0.0000    0.0000 F   0  0
    0.0000    0.0000    0.0000 F   0  0
    0.0000    0.0000    0.0000 F   0  0
    0.0000    0.0000    0.0000 C   0  0
    0.0000    0.0000    0.0000 C   0  0
    0.0000    0.0000    0.0000 C   0  0
    0.0000    0.0000    0.0000 C   0  0
    0.0000    0.0000    0.0000 N   0  0
    0.0000    0.0000    0.0000 C   0  0
    0.0000    0.0000    0.0000 N   0  0
    0.0000    0.0000    0.0000 N   0  0
    0.0000    0.0000    0.0000 C   0  0
    0.0000    0.0000    0.0000 C   0  0
    0.0000    0.0000    0.0000 C   0  0
  1  2  1  0
  2  3  2  3
  3  4  1  0
  4  5  2  3
  5  6  1  0
  6  7  2  3
  7  2  1  0
  5  8  1  0
  8  9  2  0
  8 10  1  0
 10 11  1  0
 11 12  2  3
 12 13  1  0
 13 14  2  3
 14 15  1  0
 15 16  2  3
 16 11  1  0
 14 17  1  0
 17 18  1  0
 18 19  1  0
 19 20  1  0
 20 21  1  0
 21 22  1  0
 22 23  1  0
 23 18  1  0
 21 24  1  0
 13 25  1  0
 25 26  1  0
 25 27  1  0
 25 28  1  0
  3 29  1  0
 29 30  3  0
 30 31  1  0
 31 32  2  3
 32 33  1  0
 33 34  2  3
 34 35  1  0
 35 31  1  0
 35 36  1  0
 36 37  2  3
 37 38  1  0
 38 39  2  3
 39 34  1  0
M  END
> <smiles>
CC1=C(C=C(C=C1)C(=O)NC2=CC(=C(C=C2)CN3CCN(CC3)C)C(F)(F)F)C#CC4=CN=C5N4N=CC=C5

> <facility_reagent_id>
HMSL10150

> <salt_id>
101

> <chemical_name>
AP24534; Ponatinib

> <inchi>
InChI=1S/C29H27F3N6O/c1-20-5-6-22(16-21(20)8-10-25-18-33-27-4-3-11-34-38(25)27)28(39)35-24-9-7-23(26(17-24)29(30,31)32)19-37-14-12-36(2)13-15-37/h3-7,9,11,16-18H,12-15,19H2,1-2H3,(H,35,39)

> <inchi_key>

> <chebi_id>

> <lincs_id>

> <pubchem_cid>
n/a

> <chembl_id>
n/a

> <molecular_mass>
532.56

> <molecular_formula>
C29H27F3N6O

$$$$

  SciTegic08031211342D

 40 44  0  0  0  0            999 V2000
    0.0000    0.0000    0.0000 C   0  0
    0.0000    0.0000    0.0000 N   0  0
    0.0000    0.0000    0.0000 C   0  0
    0.0000    0.0000    0.0000 C   0  0
    0.0000    0.0000    0.0000 N   0  0
    0.0000    0.0000    0.0000 C   0  0
    0.0000    0.0000    0.0000 C   0  0
    0.0000    0.0000    0.0000 C   0  0
    0.0000    0.0000    0.0000 C   0  0
    0.0000    0.0000    0.0000 O   0  0
    0.0000    0.0000    0.0000 N   0  0
    0.0000    0.0000    0.0000 C   0  0
    0.0000    0.0000    0.0000 C   0  0
    0.0000    0.0000    0.0000 C   0  0
    0.0000    0.0000    0.0000 C   0  0
    0.0000    0.0000    0.0000 C   0  0
    0.0000    0.0000    0.0000 C   0  0
    0.0000    0.0000    0.0000 C   0  0
    0.0000    0.0000    0.0000 N   0  0
    0.0000    0.0000    0.0000 C   0  0
    0.0000    0.0000    0.0000 C   0  0
    0.0000    0.0000    0.0000 C   0  0
    0.0000    0.0000    0.0000 C   0  0
    0.0000    0.0000    0.0000 C   0  0
    0.0000    0.0000    0.0000 C   0  0
    0.0000    0.0000    0.0000 C   0  0
    0.0000    0.0000    0.0000 C   0  0
    0.0000    0.0000    0.0000 C   0  0
    0.0000    0.0000    0.0000 O   0  0
    0.0000    0.0000    0.0000 O   0  0
    0.0000    0.0000    0.0000 C   0  0
    0.0000    0.0000    0.0000 N   0  0
    0.0000    0.0000    0.0000 C   0  0
    0.0000    0.0000    0.0000 O   0  0
    0.0000    0.0000    0.0000 C   0  0
    0.0000    0.0000    0.0000 C   0  0
    0.0000    0.0000    0.0000 C   0  0
    0.0000    0.0000    0.0000 C   0  0
    0.0000    0.0000    0.0000 C   0  0
    0.0000    0.0000    0.0000 C   0  0
  1  2  1  0
  2  3  1  0
  3  4  1  0
  4  5  1  0
  5  6  1  0
  6  7  1  0
  7  2  1  0
  5  8  1  0
  8  9  1  0
  9 10  2  0
  9 11  1  0
 11 12  1  0
 11 13  1  0
 13 14  2  3
 14 15  1  0
 15 16  2  3
 16 17  1  0
 17 18  2  3
 18 13  1  0
 16 19  1  0
 19 20  1  0
 20 21  2  3
 21 22  1  0
 22 23  2  3
 23 24  1  0
 24 25  2  3
 25 26  1  0
 26 27  2  3
 27 22  1  0
 25 28  1  0
 28 29  2  0
 28 30  1  0
 30 31  1  0
 23 32  1  0
 32 33  1  0
 33 21  1  0
 33 34  2  0
 20 35  1  0
 35 36  2  3
 36 37  1  0
 37 38  2  3
 38 39  1  0
 39 40  2  3
 40 35  1  0
M  END
> <smiles>
CN1CCN(CC1)CC(=O)N(C)C2=CC=C(C=C2)NC(=C3C4=C(C=C(C=C4)C(=O)OC)NC3=O)C5=CC=CC=C5

> <facility_reagent_id>
HMSL10151

> <salt_id>
101

> <chemical_name>
BIBF-1120; Vargatef

> <inchi>
InChI=1S/C31H33N5O4/c1-34-15-17-36(18-16-34)20-27(37)35(2)24-12-10-23(11-13-24)32-29(21-7-5-4-6-8-21)28-25-14-9-22(31(39)40-3)19-26(25)33-30(28)38/h4-14,19,32H,15-18,20H2,1-3H3,(H,33,38)

> <inchi_key>

> <chebi_id>

> <lincs_id>

> <pubchem_cid>
n/a

> <chembl_id>
n/a

> <molecular_mass>
539.62

> <molecular_formula>
C31H33N5O4

$$$$

  SciTegic08031211342D

 37 41  0  0  0  0            999 V2000
    0.0000    0.0000    0.0000 C   0  0
    0.0000    0.0000    0.0000 C   0  0
    0.0000    0.0000    0.0000 C   0  0
    0.0000    0.0000    0.0000 C   0  0
    0.0000    0.0000    0.0000 N   0  0
    0.0000    0.0000    0.0000 C   0  0
    0.0000    0.0000    0.0000 C   0  0
    0.0000    0.0000    0.0000 C   0  0
    0.0000    0.0000    0.0000 C   0  0
    0.0000    0.0000    0.0000 N   0  0
    0.0000    0.0000    0.0000 C   0  0
    0.0000    0.0000    0.0000 N   0  0
    0.0000    0.0000    0.0000 C   0  0
    0.0000    0.0000    0.0000 N   0  0
    0.0000    0.0000    0.0000 C   0  0
    0.0000    0.0000    0.0000 C   0  0
    0.0000    0.0000    0.0000 C   0  0
    0.0000    0.0000    0.0000 O   0  0
    0.0000    0.0000    0.0000 N   0  0
    0.0000    0.0000    0.0000 C   0  0
    0.0000    0.0000    0.0000 C   0  0
    0.0000    0.0000    0.0000 C   0  0
    0.0000    0.0000    0.0000 N   0  0
    0.0000    0.0000    0.0000 C   0  0
    0.0000    0.0000    0.0000 C   0  0
    0.0000    0.0000    0.0000 C   0  0
    0.0000    0.0000    0.0000 C   0  0
    0.0000    0.0000    0.0000 C   0  0
    0.0000    0.0000    0.0000 C   0  0
    0.0000    0.0000    0.0000 N   0  0
    0.0000    0.0000    0.0000 C   0  0
    0.0000    0.0000    0.0000 C   0  0
    0.0000    0.0000    0.0000 N   0  0
    0.0000    0.0000    0.0000 C   0  0
    0.0000    0.0000    0.0000 C   0  0
    0.0000    0.0000    0.0000 C   0  0
    0.0000    0.0000    0.0000 O   0  0
  1  2  1  0
  2  3  1  0
  2  4  1  0
  4  5  2  3
  5  6  1  0
  6  7  2  3
  7  8  1  0
  8  9  2  3
  9  4  1  0
  6 10  1  0
 10 11  1  0
 11 12  2  3
 12 13  1  0
 13 14  2  3
 14 15  1  0
 15 16  2  3
 16 11  1  0
 16 17  1  0
 17 18  2  0
 17 19  1  0
 19 10  1  0
 19 20  1  0
 20 21  1  0
 21 22  2  0
 13 23  1  0
 23 24  1  0
 24 25  2  3
 25 26  1  0
 26 27  2  3
 27 28  1  0
 28 29  2  3
 29 24  1  0
 27 30  1  0
 30 31  1  0
 31 32  1  0
 32 33  1  0
 33 34  1  0
 34 35  1  0
 35 30  1  0
 33 36  1  0
  2 37  1  0
M  END
> <smiles>
CC(C)(C1=NC(=CC=C1)N2C3=NC(=NC=C3C(=O)N2CC=C)NC4=CC=C(C=C4)N5CCN(CC5)C)O

> <facility_reagent_id>
HMSL10152

> <salt_id>
101

> <chemical_name>
MK 1775

> <inchi>
InChI=1S/C27H32N8O2/c1-5-13-34-25(36)21-18-28-26(29-19-9-11-20(12-10-19)33-16-14-32(4)15-17-33)31-24(21)35(34)23-8-6-7-22(30-23)27(2,3)37/h5-12,18,37H,1,13-17H2,2-4H3,(H,28,29,31)

> <inchi_key>

> <chebi_id>

> <lincs_id>

> <pubchem_cid>
n/a

> <chembl_id>
n/a

> <molecular_mass>
500.6

> <molecular_formula>
C27H32N8O2

$$$$

  SciTegic08031211342D

 37 41  0  0  0  0            999 V2000
    0.0000    0.0000    0.0000 N   0  0
    0.0000    0.0000    0.0000 C   0  0
    0.0000    0.0000    0.0000 C   0  0
    0.0000    0.0000    0.0000 C   0  0
    0.0000    0.0000    0.0000 N   0  0
    0.0000    0.0000    0.0000 C   0  0
    0.0000    0.0000    0.0000 C   0  0
    0.0000    0.0000    0.0000 Cl  0  0
    0.0000    0.0000    0.0000 C   0  0
    0.0000    0.0000    0.0000 C   0  0
    0.0000    0.0000    0.0000 N   0  0
    0.0000    0.0000    0.0000 C   0  0
    0.0000    0.0000    0.0000 C   0  0
    0.0000    0.0000    0.0000 C   0  0
    0.0000    0.0000    0.0000 N   0  0
    0.0000    0.0000    0.0000 C   0  0
    0.0000    0.0000    0.0000 C   0  0
    0.0000    0.0000    0.0000 C   0  0
    0.0000    0.0000    0.0000 N   0  0
    0.0000    0.0000    0.0000 C   0  0
    0.0000    0.0000    0.0000 C   0  0
    0.0000    0.0000    0.0000 C   0  0
    0.0000    0.0000    0.0000 C   0  0
    0.0000    0.0000    0.0000 N   0  0
    0.0000    0.0000    0.0000 N   0  0
    0.0000    0.0000    0.0000 C   0  0
    0.0000    0.0000    0.0000 C   0  0
    0.0000    0.0000    0.0000 C   0  0
    0.0000    0.0000    0.0000 N   0  0
    0.0000    0.0000    0.0000 C   0  0
    0.0000    0.0000    0.0000 C   0  0
    0.0000    0.0000    0.0000 C   0  0
    0.0000    0.0000    0.0000 C   0  0
    0.0000    0.0000    0.0000 F   0  0
    0.0000    0.0000    0.0000 C   0  0
    0.0000    0.0000    0.0000 Cl  0  0
    0.0000    0.0000    0.0000 C   0  0
  1  2  3  0
  2  3  1  0
  3  4  2  3
  4  5  1  0
  5  6  2  3
  6  7  1  0
  7  8  1  0
  7  9  2  3
  9 10  1  0
 10 11  1  0
 11 12  1  0
 12 13  1  0
 13 14  2  3
 14 15  1  0
 15 16  1  0
 16 17  1  0
 17 18  1  0
 18 19  1  0
 19 20  1  0
 20 21  1  0
 19 22  1  0
 22 23  1  0
 23 16  1  0
 15 24  1  0
 24 25  2  3
 25 13  1  0
 10 26  2  3
 26 27  1  0
 27  6  1  0
 27 28  2  3
 28  3  1  0
 28 29  1  0
 29 30  1  0
 30 31  2  3
 31 32  1  0
 32 33  2  3
 33 34  1  0
 33 35  1  0
 35 36  1  0
 35 37  2  3
 37 30  1  0
M  END
> <smiles>
N#CC1=CN=C2C(Cl)=CC(NCC3=CN(C4CCN(CC)CC4)N=N3)=CC2=C1NC5=CC=C(F)C(Cl)=C5

> <facility_reagent_id>
HMSL10153

> <salt_id>
101

> <chemical_name>
KIN001-266

> <inchi>
InChI=1S/C26H25Cl2FN8/c1-2-36-7-5-20(6-8-36)37-15-19(34-35-37)14-31-18-9-21-25(33-17-3-4-24(29)22(27)10-17)16(12-30)13-32-26(21)23(28)11-18/h3-4,9-11,13,15,20,31H,2,5-8,14H2,1H3,(H,32,33)

> <inchi_key>

> <chebi_id>

> <lincs_id>

> <pubchem_cid>
n/a

> <chembl_id>
n/a

> <molecular_mass>
539.44

> <molecular_formula>
C26H25Cl2FN8

$$$$

  SciTegic08031211342D

 24 27  0  0  0  0            999 V2000
    0.0000    0.0000    0.0000 C   0  0
    0.0000    0.0000    0.0000 C   0  0
    0.0000    0.0000    0.0000 N   0  0
    0.0000    0.0000    0.0000 C   0  0
    0.0000    0.0000    0.0000 C   0  0
    0.0000    0.0000    0.0000 C   0  0
    0.0000    0.0000    0.0000 C   0  0
    0.0000    0.0000    0.0000 C   0  0
    0.0000    0.0000    0.0000 C   0  0
    0.0000    0.0000    0.0000 C   0  0
    0.0000    0.0000    0.0000 C   0  0
    0.0000    0.0000    0.0000 C   0  0
    0.0000    0.0000    0.0000 C   0  0
    0.0000    0.0000    0.0000 C   0  0
    0.0000    0.0000    0.0000 N   0  0
    0.0000    0.0000    0.0000 N   0  0
    0.0000    0.0000    0.0000 C   0  0
    0.0000    0.0000    0.0000 C   0  0
    0.0000    0.0000    0.0000 C   0  0
    0.0000    0.0000    0.0000 C   0  0
    0.0000    0.0000    0.0000 C   0  0
    0.0000    0.0000    0.0000 C   0  0
    0.0000    0.0000    0.0000 C   0  0
    0.0000    0.0000    0.0000 Cl  0  0
  1  2  1  0
  2  3  1  0
  3  4  1  0
  4  5  1  0
  5  6  1  0
  6  1  1  0
  6  7  1  0
  7  8  2  3
  8  9  1  0
  9 10  2  3
 10 11  1  0
 11 12  2  3
 12  7  1  0
 10 13  1  0
 13 14  2  3
 14 15  1  0
 15 16  1  0
 16 17  2  3
 17 13  1  0
  6 18  1  0
 18 19  2  3
 19 20  1  0
 20 21  2  3
 21 22  1  0
 22 23  2  3
 23 18  1  0
 21 24  1  0
M  END
> <smiles>
C1CNCCC1(C2=CC=C(C=C2)C3=CNN=C3)C4=CC=C(C=C4)Cl

> <facility_reagent_id>
HMSL10154

> <salt_id>
101

> <chemical_name>
AT7867

> <inchi>
InChI=1S/C20H20ClN3/c21-19-7-5-18(6-8-19)20(9-11-22-12-10-20)17-3-1-15(2-4-17)16-13-23-24-14-16/h1-8,13-14,22H,9-12H2,(H,23,24)

> <inchi_key>

> <chebi_id>

> <lincs_id>

> <pubchem_cid>
n/a

> <chembl_id>
n/a

> <molecular_mass>
337.85

> <molecular_formula>
C20H20ClN3

$$$$

  SciTegic08031211342D

 39 44  0  0  0  0            999 V2000
    0.0000    0.0000    0.0000 C   0  0
    0.0000    0.0000    0.0000 C   0  0
    0.0000    0.0000    0.0000 C   0  0
    0.0000    0.0000    0.0000 N   0  0
    0.0000    0.0000    0.0000 C   0  0
    0.0000    0.0000    0.0000 C   0  0
    0.0000    0.0000    0.0000 O   0  0
    0.0000    0.0000    0.0000 C   0  0
    0.0000    0.0000    0.0000 C   0  0
    0.0000    0.0000    0.0000 C   0  0
    0.0000    0.0000    0.0000 O   0  0
    0.0000    0.0000    0.0000 N   0  0
    0.0000    0.0000    0.0000 C   0  0
    0.0000    0.0000    0.0000 C   0  0
    0.0000    0.0000    0.0000 C   0  0
    0.0000    0.0000    0.0000 C   0  0
    0.0000    0.0000    0.0000 C   0  0
    0.0000    0.0000    0.0000 C   0  0
    0.0000    0.0000    0.0000 S   0  0
    0.0000    0.0000    0.0000 C   0  0
    0.0000    0.0000    0.0000 C   0  0
    0.0000    0.0000    0.0000 C   0  0
    0.0000    0.0000    0.0000 C   0  0
    0.0000    0.0000    0.0000 C   0  0
    0.0000    0.0000    0.0000 C   0  0
    0.0000    0.0000    0.0000 C   0  0
    0.0000    0.0000    0.0000 C   0  0
    0.0000    0.0000    0.0000 C   0  0
    0.0000    0.0000    0.0000 C   0  0
    0.0000    0.0000    0.0000 O   0  0
    0.0000    0.0000    0.0000 C   0  0
    0.0000    0.0000    0.0000 C   0  0
    0.0000    0.0000    0.0000 O   0  0
    0.0000    0.0000    0.0000 N   0  0
    0.0000    0.0000    0.0000 C   0  0
    0.0000    0.0000    0.0000 C   0  0
    0.0000    0.0000    0.0000 O   0  0
    0.0000    0.0000    0.0000 C   0  0
    0.0000    0.0000    0.0000 C   0  0
  1  2  1  0
  2  3  1  0
  3  4  1  0
  4  5  1  0
  5  6  1  0
  6  7  1  0
  7  2  1  0
  6  8  1  0
  4  9  1  0
  9 10  1  0
 10 11  2  0
 10 12  1  0
 12 13  1  0
 13 14  2  3
 14 15  1  0
 15 16  2  3
 16 17  1  0
 17 18  2  3
 18 13  1  0
 16 19  1  0
 19 20  1  0
 20 21  2  3
 21 22  1  0
 22 23  2  3
 23 24  1  0
 24 25  2  3
 25 20  1  0
 25 26  1  0
 26 15  1  0
 21 27  1  0
 27 28  2  3
 28 29  1  0
 29 30  2  0
 29 31  1  0
 31 32  2  3
 32 33  1  0
 33 27  1  0
 32 34  1  0
 34 35  1  0
 35 36  1  0
 36 37  1  0
 37 38  1  0
 38 39  1  0
 39 34  1  0
M  END
> <smiles>
CC1CN(CC(O1)C)CC(=O)NC2=CC3=C(C=C2)SC4=C(C=CC=C4C3)C5=CC(=O)C=C(O5)N6CCOCC6

> <facility_reagent_id>
HMSL10155

> <salt_id>
101

> <chemical_name>
KU-60019

> <inchi>
InChI=1S/C30H33N3O5S/c1-19-16-32(17-20(2)37-19)18-28(35)31-23-6-7-27-22(13-23)12-21-4-3-5-25(30(21)39-27)26-14-24(34)15-29(38-26)33-8-10-36-11-9-33/h3-7,13-15,19-20H,8-12,16-18H2,1-2H3,(H,31,35)

> <inchi_key>

> <chebi_id>

> <lincs_id>

> <pubchem_cid>
n/a

> <chembl_id>
n/a

> <molecular_mass>
547.67

> <molecular_formula>
C30H33N3O5S

$$$$

  SciTegic08031211342D

 28 32  0  0  0  0            999 V2000
    0.0000    0.0000    0.0000 C   0  0
    0.0000    0.0000    0.0000 N   0  0
    0.0000    0.0000    0.0000 C   0  0
    0.0000    0.0000    0.0000 C   0  0
    0.0000    0.0000    0.0000 C   0  0
    0.0000    0.0000    0.0000 N   0  0
    0.0000    0.0000    0.0000 C   0  0
    0.0000    0.0000    0.0000 N   0  0
    0.0000    0.0000    0.0000 N   0  0
    0.0000    0.0000    0.0000 C   0  0
    0.0000    0.0000    0.0000 N   0  0
    0.0000    0.0000    0.0000 N   0  0
    0.0000    0.0000    0.0000 C   0  0
    0.0000    0.0000    0.0000 C   0  0
    0.0000    0.0000    0.0000 C   0  0
    0.0000    0.0000    0.0000 C   0  0
    0.0000    0.0000    0.0000 C   0  0
    0.0000    0.0000    0.0000 C   0  0
    0.0000    0.0000    0.0000 C   0  0
    0.0000    0.0000    0.0000 C   0  0
    0.0000    0.0000    0.0000 N   0  0
    0.0000    0.0000    0.0000 C   0  0
    0.0000    0.0000    0.0000 C   0  0
    0.0000    0.0000    0.0000 C   0  0
    0.0000    0.0000    0.0000 F   0  0
    0.0000    0.0000    0.0000 F   0  0
    0.0000    0.0000    0.0000 C   0  0
    0.0000    0.0000    0.0000 C   0  0
  1  2  1  0
  2  3  1  0
  3  4  2  3
  4  5  1  0
  5  6  2  3
  6  2  1  0
  4  7  1  0
  7  8  2  3
  8  9  1  0
  9 10  1  0
 10 11  2  3
 11 12  1  0
 12 13  2  3
 13  9  1  0
 13 14  1  0
 14 15  1  0
 15 16  2  3
 16 17  1  0
 17 18  2  3
 18 19  1  0
 19 20  2  3
 20 15  1  0
 18 21  1  0
 21 22  2  3
 22 23  1  0
 23 24  2  3
 24 17  1  0
 14 25  1  0
 14 26  1  0
 10 27  1  0
 27 28  2  3
 28  7  1  0
M  END
> <smiles>
CN1C=C(C=N1)C2=NN3C(=NN=C3C(C4=CC5=C(C=C4)N=CC=C5)(F)F)C=C2

> <facility_reagent_id>
HMSL10156

> <salt_id>
101

> <chemical_name>
JNJ38877605

> <inchi>
InChI=1S/C19H13F2N7/c1-27-11-13(10-23-27)16-6-7-17-24-25-18(28(17)26-16)19(20,21)14-4-5-15-12(9-14)3-2-8-22-15/h2-11H,1H3

> <inchi_key>

> <chebi_id>

> <lincs_id>

> <pubchem_cid>
n/a

> <chembl_id>
n/a

> <molecular_mass>
377.35

> <molecular_formula>
C19H13F2N7

$$$$

  SciTegic08031211342D

 46 51  0  0  0  0            999 V2000
    0.0000    0.0000    0.0000 C   0  0
    0.0000    0.0000    0.0000 O   0  0
    0.0000    0.0000    0.0000 C   0  0
    0.0000    0.0000    0.0000 C   0  0
    0.0000    0.0000    0.0000 C   0  0
    0.0000    0.0000    0.0000 C   0  0
    0.0000    0.0000    0.0000 C   0  0
    0.0000    0.0000    0.0000 C   0  0
    0.0000    0.0000    0.0000 N   0  0
    0.0000    0.0000    0.0000 C   0  0
    0.0000    0.0000    0.0000 C   0  0
    0.0000    0.0000    0.0000 C   0  0
    0.0000    0.0000    0.0000 O   0  0
    0.0000    0.0000    0.0000 C   0  0
    0.0000    0.0000    0.0000 C   0  0
    0.0000    0.0000    0.0000 C   0  0
    0.0000    0.0000    0.0000 N   0  0
    0.0000    0.0000    0.0000 C   0  0
    0.0000    0.0000    0.0000 C   0  0
    0.0000    0.0000    0.0000 O   0  0
    0.0000    0.0000    0.0000 C   0  0
    0.0000    0.0000    0.0000 C   0  0
    0.0000    0.0000    0.0000 O   0  0
    0.0000    0.0000    0.0000 C   0  0
    0.0000    0.0000    0.0000 C   0  0
    0.0000    0.0000    0.0000 C   0  0
    0.0000    0.0000    0.0000 C   0  0
    0.0000    0.0000    0.0000 C   0  0
    0.0000    0.0000    0.0000 C   0  0
    0.0000    0.0000    0.0000 N   0  0
    0.0000    0.0000    0.0000 C   0  0
    0.0000    0.0000    0.0000 O   0  0
    0.0000    0.0000    0.0000 C   0  0
    0.0000    0.0000    0.0000 C   0  0
    0.0000    0.0000    0.0000 C   0  0
    0.0000    0.0000    0.0000 C   0  0
    0.0000    0.0000    0.0000 O   0  0
    0.0000    0.0000    0.0000 N   0  0
    0.0000    0.0000    0.0000 C   0  0
    0.0000    0.0000    0.0000 C   0  0
    0.0000    0.0000    0.0000 C   0  0
    0.0000    0.0000    0.0000 C   0  0
    0.0000    0.0000    0.0000 C   0  0
    0.0000    0.0000    0.0000 C   0  0
    0.0000    0.0000    0.0000 F   0  0
    0.0000    0.0000    0.0000 F   0  0
  1  2  1  0
  2  3  1  0
  3  4  2  3
  4  5  1  0
  5  6  2  3
  6  7  1  0
  7  8  2  3
  8  9  1  0
  9 10  2  3
 10  5  1  0
 10 11  1  0
 11 12  2  3
 12  3  1  0
 12 13  1  0
 13 14  1  0
 14 15  1  0
 15 16  1  0
 16 17  1  0
 17 18  1  0
 18 19  1  0
 19 20  1  0
 20 21  1  0
 21 22  1  0
 22 17  1  0
  6 23  1  0
 23 24  1  0
 24 25  2  3
 25 26  1  0
 26 27  2  3
 27 28  1  0
 28 29  2  3
 29 24  1  0
 27 30  1  0
 30 31  1  0
 31 32  2  0
 31 33  1  0
 33 34  1  0
 34 35  1  0
 35 33  1  0
 33 36  1  0
 36 37  2  0
 36 38  1  0
 38 39  1  0
 39 40  2  3
 40 41  1  0
 41 42  2  3
 42 43  1  0
 43 44  2  3
 44 39  1  0
 42 45  1  0
 25 46  1  0
M  END
> <smiles>
COC1=CC2=C(C=CN=C2C=C1OCCCN3CCOCC3)OC4=C(C=C(C=C4)NC(=O)C5(CC5)C(=O)NC6=CC=C(C=C6)F)F

> <facility_reagent_id>
HMSL10157

> <salt_id>
101

> <chemical_name>
XL880; GSK1363089; Foretinib

> <inchi>
InChI=1S/C34H34F2N4O6/c1-43-30-20-25-27(21-31(30)45-16-2-13-40-14-17-44-18-15-40)37-12-9-28(25)46-29-8-7-24(19-26(29)36)39-33(42)34(10-11-34)32(41)38-23-5-3-22(35)4-6-23/h3-9,12,19-21H,2,10-11,13-18H2
,1H3,(H,38,41)(H,39,42)

> <inchi_key>

> <chebi_id>

> <lincs_id>

> <pubchem_cid>
n/a

> <chembl_id>
n/a

> <molecular_mass>
632.65

> <molecular_formula>
C34H34F2N4O6

$$$$

  SciTegic08031211342D

 26 28  0  0  0  0            999 V2000
    0.0000    0.0000    0.0000 C   0  0
    0.0000    0.0000    0.0000 C   0  0
    0.0000    0.0000    0.0000 N   0  0
    0.0000    0.0000    0.0000 C   0  0
    0.0000    0.0000    0.0000 C   0  0
    0.0000    0.0000    0.0000 N   0  0
    0.0000    0.0000    0.0000 C   0  0
    0.0000    0.0000    0.0000 C   0  0
    0.0000    0.0000    0.0000 C   0  0
    0.0000    0.0000    0.0000 C   0  0
    0.0000    0.0000    0.0000 N   0  0
    0.0000    0.0000    0.0000 C   0  0
    0.0000    0.0000    0.0000 N   0  0
    0.0000    0.0000    0.0000 C   0  0
    0.0000    0.0000    0.0000 C   0  0
    0.0000    0.0000    0.0000 N   0  0
    0.0000    0.0000    0.0000 C   0  0
    0.0000    0.0000    0.0000 C   0  0
    0.0000    0.0000    0.0000 C   0  0
    0.0000    0.0000    0.0000 C   0  0
    0.0000    0.0000    0.0000 C   0  0
    0.0000    0.0000    0.0000 C   0  0
    0.0000    0.0000    0.0000 S   0  0
    0.0000    0.0000    0.0000 O   0  0
    0.0000    0.0000    0.0000 O   0  0
    0.0000    0.0000    0.0000 C   0  0
  1  2  1  0
  2  3  2  3
  3  4  1  0
  4  5  2  3
  5  6  1  0
  6  2  1  0
  6  7  1  0
  7  8  1  0
  7  9  1  0
  5 10  1  0
 10 11  2  3
 11 12  1  0
 12 13  2  3
 13 14  1  0
 14 15  2  3
 15 10  1  0
 12 16  1  0
 16 17  1  0
 17 18  2  3
 18 19  1  0
 19 20  2  3
 20 21  1  0
 21 22  2  3
 22 17  1  0
 20 23  1  0
 23 24  2  0
 23 25  2  0
 23 26  1  0
M  END
> <smiles>
CC1=NC=C(N1C(C)C)C2=NC(=NC=C2)NC3=CC=C(C=C3)S(=O)(=O)C

> <facility_reagent_id>
HMSL10158

> <salt_id>
101

> <chemical_name>
AZD 5438

> <inchi>
InChI=1S/C18H21N5O2S/c1-12(2)23-13(3)20-11-17(23)16-9-10-19-18(22-16)21-14-5-7-15(8-6-14)26(4,24)25/h5-12H,1-4H3,(H,19,21,22)

> <inchi_key>

> <chebi_id>

> <lincs_id>

> <pubchem_cid>
n/a

> <chembl_id>
n/a

> <molecular_mass>
371.46

> <molecular_formula>
C18H21N5O2S

$$$$

  SciTegic08031211342D

 33 35  0  0  0  0            999 V2000
    0.0000    0.0000    0.0000 C   0  0
    0.0000    0.0000    0.0000 C   0  0
    0.0000    0.0000    0.0000 O   0  0
    0.0000    0.0000    0.0000 C   0  0
    0.0000    0.0000    0.0000 C   0  0
    0.0000    0.0000    0.0000 C   0  0
    0.0000    0.0000    0.0000 C   0  0
    0.0000    0.0000    0.0000 C   0  0
    0.0000    0.0000    0.0000 C   0  0
    0.0000    0.0000    0.0000 N   0  0
    0.0000    0.0000    0.0000 C   0  0
    0.0000    0.0000    0.0000 C   0  0
    0.0000    0.0000    0.0000 C   0  0
    0.0000    0.0000    0.0000 N   0  0
    0.0000    0.0000    0.0000 C   0  0
    0.0000    0.0000    0.0000 C   0  0
    0.0000    0.0000    0.0000 C   0  0
    0.0000    0.0000    0.0000 C   0  0
    0.0000    0.0000    0.0000 C   0  0
    0.0000    0.0000    0.0000 C   0  0
    0.0000    0.0000    0.0000 F   0  0
    0.0000    0.0000    0.0000 Cl  0  0
    0.0000    0.0000    0.0000 C   0  0
    0.0000    0.0000    0.0000 N   0  0
    0.0000    0.0000    0.0000 N   0  0
    0.0000    0.0000    0.0000 C   0  0
    0.0000    0.0000    0.0000 O   0  0
    0.0000    0.0000    0.0000 C   0  0
    0.0000    0.0000    0.0000 C   0  0
    0.0000    0.0000    0.0000 C   0  0
    0.0000    0.0000    0.0000 N   0  0
    0.0000    0.0000    0.0000 C   0  0
    0.0000    0.0000    0.0000 C   0  0
  1  2  1  0
  2  3  1  0
  3  4  1  0
  4  5  2  3
  5  6  1  0
  6  7  2  3
  7  8  1  0
  8  9  2  3
  9  4  1  0
  8 10  1  0
 10 11  2  3
 11 12  1  0
 12 13  2  3
 13  7  1  0
 13 14  1  0
 14 15  1  0
 15 16  2  3
 16 17  1  0
 17 18  2  3
 18 19  1  0
 19 20  2  3
 20 15  1  0
 18 21  1  0
 17 22  1  0
 12 23  1  0
 23 24  3  0
  5 25  1  0
 25 26  1  0
 26 27  2  0
 26 28  1  0
 28 29  2  3
 29 30  1  0
 30 31  1  0
 31 32  1  0
 31 33  1  0
M  END
> <smiles>
CCOC1=C(C=C2C(=C1)N=CC(=C2NC3=CC(=C(C=C3)F)Cl)C#N)NC(=O)C=CCN(C)C

> <facility_reagent_id>
HMSL10159

> <salt_id>
101

> <chemical_name>
EKB-569; Pelitinib

> <inchi>
InChI=1S/C24H23ClFN5O2/c1-4-33-22-12-20-17(11-21(22)30-23(32)6-5-9-31(2)3)24(15(13-27)14-28-20)29-16-7-8-19(26)18(25)10-16/h5-8,10-12,14H,4,9H2,1-3H3,(H,28,29)(H,30,32)

> <inchi_key>

> <chebi_id>

> <lincs_id>

> <pubchem_cid>
n/a

> <chembl_id>
n/a

> <molecular_mass>
467.92

> <molecular_formula>
C24H23ClFN5O2

$$$$

  SciTegic08031211342D

 25 28  0  0  0  0            999 V2000
    0.0000    0.0000    0.0000 C   0  0
    0.0000    0.0000    0.0000 N   0  0
    0.0000    0.0000    0.0000 C   0  0
    0.0000    0.0000    0.0000 C   0  0
    0.0000    0.0000    0.0000 C   0  0
    0.0000    0.0000    0.0000 C   0  0
    0.0000    0.0000    0.0000 C   0  0
    0.0000    0.0000    0.0000 C   0  0
    0.0000    0.0000    0.0000 C   0  0
    0.0000    0.0000    0.0000 C   0  0
    0.0000    0.0000    0.0000 C   0  0
    0.0000    0.0000    0.0000 C   0  0
    0.0000    0.0000    0.0000 C   0  0
    0.0000    0.0000    0.0000 O   0  0
    0.0000    0.0000    0.0000 N   0  0
    0.0000    0.0000    0.0000 C   0  0
    0.0000    0.0000    0.0000 O   0  0
    0.0000    0.0000    0.0000 C   0  0
    0.0000    0.0000    0.0000 C   0  0
    0.0000    0.0000    0.0000 C   0  0
    0.0000    0.0000    0.0000 C   0  0
    0.0000    0.0000    0.0000 C   0  0
    0.0000    0.0000    0.0000 C   0  0
    0.0000    0.0000    0.0000 Cl  0  0
    0.0000    0.0000    0.0000 Cl  0  0
  1  2  1  0
  2  3  1  0
  3  4  2  3
  4  5  1  0
  5  6  2  3
  6  7  1  0
  7  8  2  3
  8  9  1  0
  9 10  2  3
 10  5  1  0
 10  2  1  0
  4 11  1  0
 11 12  2  3
 12 13  1  0
 13 14  2  0
 13 15  1  0
 15 16  1  0
 16 11  1  0
 16 17  2  0
 12 18  1  0
 18 19  2  3
 19 20  1  0
 20 21  2  3
 21 22  1  0
 22 23  2  3
 23 18  1  0
 21 24  1  0
 19 25  1  0
M  END
> <smiles>
CN1C=C(C2=CC=CC=C21)C3=C(C(=O)NC3=O)C4=C(C=C(C=C4)Cl)Cl

> <facility_reagent_id>
HMSL10160

> <salt_id>
101

> <chemical_name>
SB 216763

> <inchi>
InChI=1S/C19H12Cl2N2O2/c1-23-9-13(11-4-2-3-5-15(11)23)17-16(18(24)22-19(17)25)12-7-6-10(20)8-14(12)21/h2-9H,1H3,(H,22,24,25)

> <inchi_key>

> <chebi_id>

> <lincs_id>

> <pubchem_cid>
n/a

> <chembl_id>
n/a

> <molecular_mass>
371.22

> <molecular_formula>
C19H12Cl2N2O2

$$$$

  SciTegic08031211342D

 34 37  0  0  0  0            999 V2000
    0.0000    0.0000    0.0000 O   0  0
    0.0000    0.0000    0.0000 N   0  0
    0.0000    0.0000    0.0000 C   0  0
    0.0000    0.0000    0.0000 C   0  0
    0.0000    0.0000    0.0000 C   0  0
    0.0000    0.0000    0.0000 C   0  0
    0.0000    0.0000    0.0000 C   0  0
    0.0000    0.0000    0.0000 C   0  0
    0.0000    0.0000    0.0000 C   0  0
    0.0000    0.0000    0.0000 C   0  0
    0.0000    0.0000    0.0000 C   0  0
    0.0000    0.0000    0.0000 C   0  0
    0.0000    0.0000    0.0000 O   0  0
    0.0000    0.0000    0.0000 C   0  0
    0.0000    0.0000    0.0000 C   0  0
    0.0000    0.0000    0.0000 O   0  0
    0.0000    0.0000    0.0000 C   0  0
    0.0000    0.0000    0.0000 C   0  0
    0.0000    0.0000    0.0000 C   0  0
    0.0000    0.0000    0.0000 C   0  0
    0.0000    0.0000    0.0000 C   0  0
    0.0000    0.0000    0.0000 N   0  0
    0.0000    0.0000    0.0000 C   0  0
    0.0000    0.0000    0.0000 C   0  0
    0.0000    0.0000    0.0000 O   0  0
    0.0000    0.0000    0.0000 C   0  0
    0.0000    0.0000    0.0000 C   0  0
    0.0000    0.0000    0.0000 C   0  0
    0.0000    0.0000    0.0000 C   0  0
    0.0000    0.0000    0.0000 C   0  0
    0.0000    0.0000    0.0000 N   0  0
    0.0000    0.0000    0.0000 C   0  0
    0.0000    0.0000    0.0000 C   0  0
    0.0000    0.0000    0.0000 O   0  0
  1  2  1  0
  2  3  2  3
  3  4  1  0
  4  5  2  3
  5  1  1  0
  5  6  1  0
  6  7  1  0
  7  8  2  3
  8  9  1  0
  9 10  1  0
  9 11  1  0
  6 12  2  3
 12 13  1  0
 12 14  1  0
 14 15  2  3
 15  8  1  0
 15 16  1  0
  4 17  1  0
 17 18  1  0
 18 19  2  3
 19 20  1  0
 20 21  1  0
 21 22  1  0
 22 23  1  0
 23 24  1  0
 24 25  1  0
 22 26  1  0
 26 27  1  0
 27 25  1  0
 17 28  2  3
 28 29  1  0
 29 20  2  3
  3 30  1  0
 30 31  1  0
 31 32  1  0
 32 33  1  0
 30 34  2  0
M  END
> <smiles>
O1N=C(C(=C1C(C=C1C(C)C)=C(O)C=C1O)C(C=CC1CN(CCO2)CC2)=CC=1)C(NCC)=O

> <facility_reagent_id>
HMSL10161

> <salt_id>
101

> <chemical_name>
NVP-AUY922

> <inchi>
InChI=1S/C26H31N3O5/c1-4-27-26(32)24-23(18-7-5-17(6-8-18)15-29-9-11-33-12-10-29)25(34-28-24)20-13-19(16(2)3)21(30)14-22(20)31/h5-8,13-14,16,30-31H,4,9-12,15H2,1-3H3,(H,27,32)

> <inchi_key>

> <chebi_id>

> <lincs_id>

> <pubchem_cid>
n/a

> <chembl_id>
n/a

> <molecular_mass>
465.54

> <molecular_formula>
C26H31N3O5

$$$$

  SciTegic08031211342D

 17 20  0  0  0  0            999 V2000
    0.0000    0.0000    0.0000 C   0  0
    0.0000    0.0000    0.0000 C   0  0
    0.0000    0.0000    0.0000 C   0  0
    0.0000    0.0000    0.0000 C   0  0
    0.0000    0.0000    0.0000 C   0  0
    0.0000    0.0000    0.0000 C   0  0
    0.0000    0.0000    0.0000 C   0  0
    0.0000    0.0000    0.0000 N   0  0
    0.0000    0.0000    0.0000 N   0  0
    0.0000    0.0000    0.0000 C   0  0
    0.0000    0.0000    0.0000 C   0  0
    0.0000    0.0000    0.0000 C   0  0
    0.0000    0.0000    0.0000 C   0  0
    0.0000    0.0000    0.0000 C   0  0
    0.0000    0.0000    0.0000 C   0  0
    0.0000    0.0000    0.0000 C   0  0
    0.0000    0.0000    0.0000 O   0  0
  1  2  2  3
  2  3  1  0
  3  4  2  3
  4  5  1  0
  5  6  2  3
  6  1  1  0
  5  7  1  0
  7  8  2  3
  8  9  1  0
  9 10  1  0
 10 11  2  3
 11 12  1  0
 12 13  2  3
 13 14  1  0
 14 15  2  3
 15 10  1  0
 15  7  1  0
 14 16  1  0
 16  4  1  0
 16 17  2  0
M  END
> <smiles>
C1=CC=C2C(=C1)C3=NNC4=CC=CC(=C43)C2=O

> <facility_reagent_id>
HMSL10162

> <salt_id>
101

> <chemical_name>
SP600125

> <inchi>
InChI=1S/C14H8N2O/c17-14-9-5-2-1-4-8(9)13-12-10(14)6-3-7-11(12)15-16-13/h1-7H,(H,15,16)

> <inchi_key>

> <chebi_id>

> <lincs_id>

> <pubchem_cid>
n/a

> <chembl_id>
n/a

> <molecular_mass>
220.23

> <molecular_formula>
C14H8N2O

$$$$

  SciTegic08031211342D

 33 36  0  0  0  0            999 V2000
    0.0000    0.0000    0.0000 C   0  0
    0.0000    0.0000    0.0000 N   0  0
    0.0000    0.0000    0.0000 C   0  0
    0.0000    0.0000    0.0000 C   0  0
    0.0000    0.0000    0.0000 C   0  0
    0.0000    0.0000    0.0000 C   0  0
    0.0000    0.0000    0.0000 C   0  0
    0.0000    0.0000    0.0000 C   0  0
    0.0000    0.0000    0.0000 C   0  0
    0.0000    0.0000    0.0000 C   0  0
    0.0000    0.0000    0.0000 N   0  0
    0.0000    0.0000    0.0000 C   0  0
    0.0000    0.0000    0.0000 C   0  0
    0.0000    0.0000    0.0000 C   0  0
    0.0000    0.0000    0.0000 C   0  0
    0.0000    0.0000    0.0000 C   0  0
    0.0000    0.0000    0.0000 C   0  0
    0.0000    0.0000    0.0000 C   0  0
    0.0000    0.0000    0.0000 C   0  0
    0.0000    0.0000    0.0000 C   0  0
    0.0000    0.0000    0.0000 O   0  0
    0.0000    0.0000    0.0000 N   0  0
    0.0000    0.0000    0.0000 C   0  0
    0.0000    0.0000    0.0000 C   0  0
    0.0000    0.0000    0.0000 N   0  0
    0.0000    0.0000    0.0000 C   0  0
    0.0000    0.0000    0.0000 O   0  0
    0.0000    0.0000    0.0000 C   0  0
    0.0000    0.0000    0.0000 C   0  0
    0.0000    0.0000    0.0000 C   0  0
    0.0000    0.0000    0.0000 C   0  0
    0.0000    0.0000    0.0000 C   0  0
    0.0000    0.0000    0.0000 C   0  0
  1  2  1  0
  2  3  1  0
  2  4  1  0
  4  5  1  0
  5  6  2  3
  6  7  1  0
  7  8  2  3
  8  9  1  0
  9 10  2  3
 10  5  1  0
  7 11  1  0
 11 12  1  0
 12 13  2  3
 13 14  1  0
 14 15  2  3
 15 16  1  0
 16 17  2  3
 17 18  1  0
 18 19  2  3
 19 14  1  0
 17 20  1  0
 20 21  2  0
 20 22  1  0
 22 23  1  0
 22 24  1  0
 15 25  1  0
 25 26  1  0
 26 13  1  0
 26 27  2  0
 12 28  1  0
 28 29  2  3
 29 30  1  0
 30 31  2  3
 31 32  1  0
 32 33  2  3
 33 28  1  0
M  END
> <smiles>
CN(C)CC1=CC(=CC=C1)NC(=C2C3=C(C=C(C=C3)C(=O)N(C)C)NC2=O)C4=CC=CC=C4

> <facility_reagent_id>
HMSL10163

> <salt_id>
101

> <chemical_name>
BIX 02189

> <inchi>
InChI=1S/C27H28N4O2/c1-30(2)17-18-9-8-12-21(15-18)28-25(19-10-6-5-7-11-19)24-22-14-13-20(27(33)31(3)4)16-23(22)29-26(24)32/h5-16,28H,17H2,1-4H3,(H,29,32)

> <inchi_key>

> <chebi_id>

> <lincs_id>

> <pubchem_cid>
n/a

> <chembl_id>
n/a

> <molecular_mass>
440.54

> <molecular_formula>
C27H28N4O2

$$$$

  SciTegic08031211342D

 25 26  0  0  0  0            999 V2000
    0.0000    0.0000    0.0000 C   0  0
    0.0000    0.0000    0.0000 C   0  0
    0.0000    0.0000    0.0000 I   0  0
    0.0000    0.0000    0.0000 C   0  0
    0.0000    0.0000    0.0000 C   0  0
    0.0000    0.0000    0.0000 C   0  0
    0.0000    0.0000    0.0000 C   0  0
    0.0000    0.0000    0.0000 N   0  0
    0.0000    0.0000    0.0000 C   0  0
    0.0000    0.0000    0.0000 N   0  0
    0.0000    0.0000    0.0000 C   0  0
    0.0000    0.0000    0.0000 C   0  0
    0.0000    0.0000    0.0000 O   0  0
    0.0000    0.0000    0.0000 C   0  0
    0.0000    0.0000    0.0000 C   0  0
    0.0000    0.0000    0.0000 C   0  0
    0.0000    0.0000    0.0000 C   0  0
    0.0000    0.0000    0.0000 C   0  0
    0.0000    0.0000    0.0000 O   0  0
    0.0000    0.0000    0.0000 N   0  0
    0.0000    0.0000    0.0000 O   0  0
    0.0000    0.0000    0.0000 C   0  0
    0.0000    0.0000    0.0000 C   0  0
    0.0000    0.0000    0.0000 O   0  0
    0.0000    0.0000    0.0000 F   0  0
  1  2  2  3
  2  3  1  0
  2  4  1  0
  4  5  2  3
  5  6  1  0
  6  7  2  3
  7  1  1  0
  6  8  1  0
  8  9  1  0
  9 10  1  0
 10 11  1  0
 10 12  1  0
 12 13  2  0
 12 14  1  0
 14 15  1  0
  9 16  2  3
 16 17  1  0
 17 14  2  3
 16 18  1  0
 18 19  2  0
 18 20  1  0
 20 21  1  0
 21 22  1  0
 22 23  1  0
 23 24  1  0
  5 25  1  0
M  END
> <smiles>
C1=C(I)C=C(C(=C1)NC(N(C)C(=O)C1C)=C(C=1)C(=O)NOCCO)F

> <facility_reagent_id>
HMSL10164

> <salt_id>
101

> <chemical_name>
AZD8330; ARRY-424704; ARRY-704

> <inchi>
InChI=1S/C16H17FIN3O4/c1-9-7-11(15(23)20-25-6-5-22)14(21(2)16(9)24)19-13-4-3-10(18)8-12(13)17/h3-4,7-8,19,22H,5-6H2,1-2H3,(H,20,23)

> <inchi_key>

> <chebi_id>

> <lincs_id>

> <pubchem_cid>
n/a

> <chembl_id>
n/a

> <molecular_mass>
461.23

> <molecular_formula>
C16H17FIN3O4

$$$$

  SciTegic08031211342D

 28 32  0  0  0  0            999 V2000
    0.0000    0.0000    0.0000 C   0  0
    0.0000    0.0000    0.0000 N   0  0
    0.0000    0.0000    0.0000 N   0  0
    0.0000    0.0000    0.0000 C   0  0
    0.0000    0.0000    0.0000 C   0  0
    0.0000    0.0000    0.0000 N   0  0
    0.0000    0.0000    0.0000 C   0  0
    0.0000    0.0000    0.0000 N   0  0
    0.0000    0.0000    0.0000 N   0  0
    0.0000    0.0000    0.0000 C   0  0
    0.0000    0.0000    0.0000 C   0  0
    0.0000    0.0000    0.0000 C   0  0
    0.0000    0.0000    0.0000 C   0  0
    0.0000    0.0000    0.0000 C   0  0
    0.0000    0.0000    0.0000 N   0  0
    0.0000    0.0000    0.0000 C   0  0
    0.0000    0.0000    0.0000 C   0  0
    0.0000    0.0000    0.0000 C   0  0
    0.0000    0.0000    0.0000 C   0  0
    0.0000    0.0000    0.0000 C   0  0
    0.0000    0.0000    0.0000 C   0  0
    0.0000    0.0000    0.0000 C   0  0
    0.0000    0.0000    0.0000 N   0  0
    0.0000    0.0000    0.0000 N   0  0
    0.0000    0.0000    0.0000 C   0  0
    0.0000    0.0000    0.0000 C   0  0
    0.0000    0.0000    0.0000 C   0  0
    0.0000    0.0000    0.0000 O   0  0
  1  2  1  0
  1  3  1  0
  3  4  2  3
  4  5  1  0
  5  6  2  3
  6  7  1  0
  7  1  2  3
  7  8  1  0
  8  9  1  0
  9  2  2  3
  8 10  1  0
 10 11  1  0
 11 12  1  0
 12 13  2  3
 13 14  1  0
 14 15  1  0
 15 16  2  3
 11 17  2  3
 17 18  1  0
 18 14  2  3
 18 19  1  0
 19 20  2  3
 20 16  1  0
  5 21  1  0
 21 22  2  3
 22 23  1  0
 23 24  1  0
 24 25  2  3
 25 21  1  0
 23 26  1  0
 26 27  1  0
 27 28  1  0
M  END
> <smiles>
C1(N2)N=CC(=NC=1N(N=2)CC(C=CC1N=C2)=CC=1C=C2)C1=CN(N=C1)CCO

> <facility_reagent_id>
HMSL10165

> <salt_id>
101

> <chemical_name>
PF04217903

> <inchi>
InChI=1S/C19H16N8O/c28-7-6-26-12-15(9-22-26)17-10-21-18-19(23-17)27(25-24-18)11-13-3-4-16-14(8-13)2-1-5-20-16/h1-5,8-10,12,28H,6-7,11H2

> <inchi_key>

> <chebi_id>

> <lincs_id>

> <pubchem_cid>
n/a

> <chembl_id>
n/a

> <molecular_mass>
372.38

> <molecular_formula>
C19H16N8O

$$$$

  SciTegic08031211342D

 29 32  0  0  0  0            999 V2000
    0.0000    0.0000    0.0000 O   0  0
    0.0000    0.0000    0.0000 C   0  0
    0.0000    0.0000    0.0000 C   0  0
    0.0000    0.0000    0.0000 C   0  0
    0.0000    0.0000    0.0000 C   0  0
    0.0000    0.0000    0.0000 C   0  0
    0.0000    0.0000    0.0000 N   0  0
    0.0000    0.0000    0.0000 C   0  0
    0.0000    0.0000    0.0000 N   0  0
    0.0000    0.0000    0.0000 C   0  0
    0.0000    0.0000    0.0000 N   0  0
    0.0000    0.0000    0.0000 C   0  0
    0.0000    0.0000    0.0000 C   0  0
    0.0000    0.0000    0.0000 C   0  0
    0.0000    0.0000    0.0000 C   0  0
    0.0000    0.0000    0.0000 C   0  0
    0.0000    0.0000    0.0000 O   0  0
    0.0000    0.0000    0.0000 C   0  0
    0.0000    0.0000    0.0000 C   0  0
    0.0000    0.0000    0.0000 O   0  0
    0.0000    0.0000    0.0000 C   0  0
    0.0000    0.0000    0.0000 C   0  0
    0.0000    0.0000    0.0000 C   0  0
    0.0000    0.0000    0.0000 C   0  0
    0.0000    0.0000    0.0000 N   0  0
    0.0000    0.0000    0.0000 C   0  0
    0.0000    0.0000    0.0000 C   0  0
    0.0000    0.0000    0.0000 N   0  0
    0.0000    0.0000    0.0000 N   0  0
  1  2  2  0
  2  3  1  0
  3  4  2  3
  4  5  1  0
  5  6  2  3
  6  7  1  0
  7  8  2  3
  8  3  1  0
  8  9  1  0
  9 10  1  0
 10 11  2  3
 11 12  1  0
 12 13  1  0
 13 14  2  3
 14 15  1  0
 15 16  2  3
 16 17  1  0
 17 18  1  0
 16 19  1  0
 19 20  1  0
 20 21  1  0
 19 22  2  3
 22 13  1  0
 12 23  2  3
 23 24  1  0
 24 25  2  3
 25 26  1  0
 26 27  2  3
 27 28  1  0
 28 10  1  0
 28 24  1  0
  2 29  1  0
M  END
> <smiles>
O=C(C1=CC=CN=C1NC2=NC(C3=CC=C(OC)C(OC)=C3)=CC4=NC=CN24)N

> <facility_reagent_id>
HMSL10166

> <salt_id>
101

> <chemical_name>
Bay61-3606

> <inchi>
InChI=1S/C20H18N6O3/c1-28-15-6-5-12(10-16(15)29-2)14-11-17-22-8-9-26(17)20(24-14)25-19-13(18(21)27)4-3-7-23-19/h3-11H,1-2H3,(H2,21,27)(H,23,24,25)

> <inchi_key>

> <chebi_id>

> <lincs_id>

> <pubchem_cid>
n/a

> <chembl_id>
n/a

> <molecular_mass>
390.4

> <molecular_formula>
C20H18N6O3

$$$$

  SciTegic08031211342D

 27 30  0  0  0  0            999 V2000
    0.0000    0.0000    0.0000 C   0  0
    0.0000    0.0000    0.0000 S   0  0
    0.0000    0.0000    0.0000 O   0  0
    0.0000    0.0000    0.0000 C   0  0
    0.0000    0.0000    0.0000 C   0  0
    0.0000    0.0000    0.0000 C   0  0
    0.0000    0.0000    0.0000 C   0  0
    0.0000    0.0000    0.0000 C   0  0
    0.0000    0.0000    0.0000 C   0  0
    0.0000    0.0000    0.0000 C   0  0
    0.0000    0.0000    0.0000 N   0  0
    0.0000    0.0000    0.0000 C   0  0
    0.0000    0.0000    0.0000 C   0  0
    0.0000    0.0000    0.0000 N   0  0
    0.0000    0.0000    0.0000 C   0  0
    0.0000    0.0000    0.0000 C   0  0
    0.0000    0.0000    0.0000 C   0  0
    0.0000    0.0000    0.0000 N   0  0
    0.0000    0.0000    0.0000 C   0  0
    0.0000    0.0000    0.0000 C   0  0
    0.0000    0.0000    0.0000 C   0  0
    0.0000    0.0000    0.0000 C   0  0
    0.0000    0.0000    0.0000 C   0  0
    0.0000    0.0000    0.0000 C   0  0
    0.0000    0.0000    0.0000 C   0  0
    0.0000    0.0000    0.0000 C   0  0
    0.0000    0.0000    0.0000 F   0  0
  1  2  1  0
  2  3  2  0
  2  4  1  0
  4  5  2  3
  5  6  1  0
  6  7  2  3
  7  8  1  0
  8  9  2  3
  9  4  1  0
  7 10  1  0
 10 11  2  3
 11 12  1  0
 12 13  2  3
 13 14  1  0
 14 10  1  0
 13 15  1  0
 15 16  2  3
 16 17  1  0
 17 18  2  3
 18 19  1  0
 19 20  2  3
 20 15  1  0
 12 21  1  0
 21 22  2  3
 22 23  1  0
 23 24  2  3
 24 25  1  0
 25 26  2  3
 26 21  1  0
 24 27  1  0
M  END
> <smiles>
CS(=O)C1=CC=C(C=C1)C2=NC(=C(N2)C3=CC=NC=C3)C4=CC=C(C=C4)F

> <facility_reagent_id>
HMSL10167

> <salt_id>
101

> <chemical_name>
SB 203580; RWJ 64809; PB 203580

> <inchi>
InChI=1S/C21H16FN3OS/c1-27(26)18-8-4-16(5-9-18)21-24-19(14-2-6-17(22)7-3-14)20(25-21)15-10-12-23-13-11-15/h2-13H,1H3,(H,24,25)

> <inchi_key>

> <chebi_id>

> <lincs_id>

> <pubchem_cid>
n/a

> <chembl_id>
n/a

> <molecular_mass>
377.44

> <molecular_formula>
C21H16FN3OS

$$$$

  SciTegic08031211342D

 28 31  0  0  0  0            999 V2000
    0.0000    0.0000    0.0000 C   0  0
    0.0000    0.0000    0.0000 C   0  0
    0.0000    0.0000    0.0000 C   0  0
    0.0000    0.0000    0.0000 C   0  0
    0.0000    0.0000    0.0000 C   0  0
    0.0000    0.0000    0.0000 C   0  0
    0.0000    0.0000    0.0000 Cl  0  0
    0.0000    0.0000    0.0000 C   0  0
    0.0000    0.0000    0.0000 C   0  0
    0.0000    0.0000    0.0000 C   0  0
    0.0000    0.0000    0.0000 C   0  0
    0.0000    0.0000    0.0000 C   0  0
    0.0000    0.0000    0.0000 N   0  0
    0.0000    0.0000    0.0000 N   0  0
    0.0000    0.0000    0.0000 C   0  0
    0.0000    0.0000    0.0000 N   0  0
    0.0000    0.0000    0.0000 C   0  0
    0.0000    0.0000    0.0000 O   0  0
    0.0000    0.0000    0.0000 S   0  0
    0.0000    0.0000    0.0000 C   0  0
    0.0000    0.0000    0.0000 C   0  0
    0.0000    0.0000    0.0000 C   0  0
    0.0000    0.0000    0.0000 C   0  0
    0.0000    0.0000    0.0000 C   0  0
    0.0000    0.0000    0.0000 C   0  0
    0.0000    0.0000    0.0000 F   0  0
    0.0000    0.0000    0.0000 F   0  0
    0.0000    0.0000    0.0000 Cl  0  0
  1  2  2  3
  2  3  1  0
  3  4  2  3
  4  5  1  0
  5  6  2  3
  6  1  1  0
  5  7  1  0
  4  8  1  0
  8  9  2  3
  9 10  1  0
 10 11  2  3
 11 12  1  0
 12 13  2  3
 13 14  1  0
 14  9  1  0
 14 15  1  0
 15 16  2  3
 16 17  1  0
 17  8  1  0
 17 18  2  0
 12 19  1  0
 19 20  1  0
 20 21  2  3
 21 22  1  0
 22 23  2  3
 23 24  1  0
 24 25  2  3
 25 20  1  0
 23 26  1  0
 21 27  1  0
  3 28  1  0
M  END
> <smiles>
C1=CC(=C(C(=C1)Cl)C2=C3C=CC(=NN3C=NC2=O)SC4=C(C=C(C=C4)F)F)Cl

> <facility_reagent_id>
HMSL10168

> <salt_id>
101

> <chemical_name>
VX-745

> <inchi>
InChI=1S/C19H9Cl2F2N3OS/c20-11-2-1-3-12(21)17(11)18-14-5-7-16(25-26(14)9-24-19(18)27)28-15-6-4-10(22)8-13(15)23/h1-9H

> <inchi_key>

> <chebi_id>

> <lincs_id>

> <pubchem_cid>
n/a

> <chembl_id>
n/a

> <molecular_mass>
436.26

> <molecular_formula>
C19H9Cl2F2N3OS

$$$$

  SciTegic08031211342D

 39 43  0  0  0  0            999 V2000
    0.0000    0.0000    0.0000 C   0  0
    0.0000    0.0000    0.0000 C   0  0
    0.0000    0.0000    0.0000 C   0  0
    0.0000    0.0000    0.0000 C   0  0
    0.0000    0.0000    0.0000 C   0  0
    0.0000    0.0000    0.0000 C   0  0
    0.0000    0.0000    0.0000 C   0  0
    0.0000    0.0000    0.0000 N   0  0
    0.0000    0.0000    0.0000 C   0  0
    0.0000    0.0000    0.0000 C   0  0
    0.0000    0.0000    0.0000 C   0  0
    0.0000    0.0000    0.0000 N   0  0
    0.0000    0.0000    0.0000 C   0  0
    0.0000    0.0000    0.0000 C   0  0
    0.0000    0.0000    0.0000 C   0  0
    0.0000    0.0000    0.0000 C   0  0
    0.0000    0.0000    0.0000 N   0  0
    0.0000    0.0000    0.0000 C   0  0
    0.0000    0.0000    0.0000 O   0  0
    0.0000    0.0000    0.0000 N   0  0
    0.0000    0.0000    0.0000 C   0  0
    0.0000    0.0000    0.0000 C   0  0
    0.0000    0.0000    0.0000 C   0  0
    0.0000    0.0000    0.0000 C   0  0
    0.0000    0.0000    0.0000 C   0  0
    0.0000    0.0000    0.0000 C   0  0
    0.0000    0.0000    0.0000 C   0  0
    0.0000    0.0000    0.0000 C   0  0
    0.0000    0.0000    0.0000 C   0  0
    0.0000    0.0000    0.0000 C   0  0
    0.0000    0.0000    0.0000 O   0  0
    0.0000    0.0000    0.0000 C   0  0
    0.0000    0.0000    0.0000 C   0  0
    0.0000    0.0000    0.0000 N   0  0
    0.0000    0.0000    0.0000 C   0  0
    0.0000    0.0000    0.0000 C   0  0
    0.0000    0.0000    0.0000 O   0  0
    0.0000    0.0000    0.0000 C   0  0
    0.0000    0.0000    0.0000 C   0  0
  1  2  1  0
  2  3  2  3
  3  4  1  0
  4  5  2  3
  5  6  1  0
  6  7  2  3
  7  2  1  0
  5  8  1  0
  8  9  1  0
  9 10  2  3
 10 11  1  0
 11 12  2  3
 12  8  1  0
 11 13  1  0
 13 14  1  0
 13 15  1  0
 13 16  1  0
  9 17  1  0
 17 18  1  0
 18 19  2  0
 18 20  1  0
 20 21  1  0
 21 22  2  3
 22 23  1  0
 23 24  2  3
 24 25  1  0
 25 26  2  3
 26 27  1  0
 27 28  2  3
 28 29  1  0
 29 30  2  3
 30 25  1  0
 30 21  1  0
 24 31  1  0
 31 32  1  0
 32 33  1  0
 33 34  1  0
 34 35  1  0
 35 36  1  0
 36 37  1  0
 37 38  1  0
 38 39  1  0
 39 34  1  0
M  END
> <smiles>
CC1=CC=C(C=C1)N2C(=CC(=N2)C(C)(C)C)NC(=O)NC3=CC=C(C4=CC=CC=C43)OCCN5CCOCC5

> <facility_reagent_id>
HMSL10169

> <salt_id>
101

> <chemical_name>
BIRB 796; Doramapimod

> <inchi>
InChI=1S/C31H37N5O3/c1-22-9-11-23(12-10-22)36-29(21-28(34-36)31(2,3)4)33-30(37)32-26-13-14-27(25-8-6-5-7-24(25)26)39-20-17-35-15-18-38-19-16-35/h5-14,21H,15-20H2,1-4H3,(H2,32,33,37)

> <inchi_key>

> <chebi_id>

> <lincs_id>

> <pubchem_cid>
n/a

> <chembl_id>
n/a

> <molecular_mass>
527.66

> <molecular_formula>
C31H37N5O3

$$$$

  SciTegic08031211342D

 25 28  0  0  0  0            999 V2000
    0.0000    0.0000    0.0000 C   0  0
    0.0000    0.0000    0.0000 C   0  0
    0.0000    0.0000    0.0000 N   0  0
    0.0000    0.0000    0.0000 C   0  0
    0.0000    0.0000    0.0000 C   0  0
    0.0000    0.0000    0.0000 C   0  0
    0.0000    0.0000    0.0000 C   0  0
    0.0000    0.0000    0.0000 N   0  0
    0.0000    0.0000    0.0000 C   0  0
    0.0000    0.0000    0.0000 C   0  0
    0.0000    0.0000    0.0000 C   0  0
    0.0000    0.0000    0.0000 C   0  0
    0.0000    0.0000    0.0000 C   0  0
    0.0000    0.0000    0.0000 C   0  0
    0.0000    0.0000    0.0000 C   0  0
    0.0000    0.0000    0.0000 C   0  0
    0.0000    0.0000    0.0000 N   0  0
    0.0000    0.0000    0.0000 C   0  0
    0.0000    0.0000    0.0000 C   0  0
    0.0000    0.0000    0.0000 C   0  0
    0.0000    0.0000    0.0000 N   0  0
    0.0000    0.0000    0.0000 C   0  0
    0.0000    0.0000    0.0000 C   0  0
    0.0000    0.0000    0.0000 C   0  0
    0.0000    0.0000    0.0000 C   0  0
  1  2  1  0
  2  3  1  0
  3  4  1  0
  4  5  1  0
  5  6  1  0
  6  7  2  3
  7  8  1  0
  6  9  1  0
  9 10  1  0
 10 11  2  3
 11 12  1  0
  9 13  2  3
 13  8  1  0
 13 14  1  0
 14 12  2  3
  2 15  2  3
 15 16  1  0
 16 17  1  0
 17 18  1  0
 18 19  2  3
 19 20  1  0
 20 21  2  3
 18 22  1  0
 22 23  2  3
 23 21  1  0
 16 24  2  3
 24 25  1  0
 25  1  2  3
M  END
> <smiles>
C1C(NCCC(=CN2)C(C=CC3)=C2C=3)=CC(NC(=CC=N2)C=C2)=CC=1

> <facility_reagent_id>
HMSL10170

> <salt_id>
101

> <chemical_name>
JNJ 26854165

> <inchi>
InChI=1S/C21H20N4/c1-2-7-21-20(6-1)16(15-24-21)8-13-23-18-4-3-5-19(14-18)25-17-9-11-22-12-10-17/h1-7,9-12,14-15,23-24H,8,13H2,(H,22,25)

> <inchi_key>

> <chebi_id>

> <lincs_id>

> <pubchem_cid>
n/a

> <chembl_id>
n/a

> <molecular_mass>
328.41

> <molecular_formula>
C21H20N4

$$$$

  SciTegic08031211342D

 27 30  0  0  0  0            999 V2000
    0.0000    0.0000    0.0000 C   0  0
    0.0000    0.0000    0.0000 C   0  0
    0.0000    0.0000    0.0000 C   0  0
    0.0000    0.0000    0.0000 N   0  0
    0.0000    0.0000    0.0000 C   0  0
    0.0000    0.0000    0.0000 O   0  0
    0.0000    0.0000    0.0000 C   0  0
    0.0000    0.0000    0.0000 C   0  0
    0.0000    0.0000    0.0000 N   0  0
    0.0000    0.0000    0.0000 C   0  0
    0.0000    0.0000    0.0000 C   0  0
    0.0000    0.0000    0.0000 C   0  0
    0.0000    0.0000    0.0000 C   0  0
    0.0000    0.0000    0.0000 C   0  0
    0.0000    0.0000    0.0000 N   0  0
    0.0000    0.0000    0.0000 C   0  0
    0.0000    0.0000    0.0000 C   0  0
    0.0000    0.0000    0.0000 C   0  0
    0.0000    0.0000    0.0000 C   0  0
    0.0000    0.0000    0.0000 C   0  0
    0.0000    0.0000    0.0000 C   0  0
    0.0000    0.0000    0.0000 N   0  0
    0.0000    0.0000    0.0000 C   0  0
    0.0000    0.0000    0.0000 C   0  0
    0.0000    0.0000    0.0000 O   0  0
    0.0000    0.0000    0.0000 C   0  0
    0.0000    0.0000    0.0000 C   0  0
  1  2  1  0
  2  3  2  3
  3  4  1  0
  4  5  1  0
  5  6  2  0
  5  7  1  0
  7  8  2  3
  8  9  1  0
  9 10  2  3
 10  4  1  0
 10 11  1  0
 11 12  2  3
 12  2  1  0
 11 13  1  0
 13 14  1  0
 13 15  1  0
 15 16  1  0
 16 17  2  3
 17 18  1  0
 18 19  2  3
 19 20  1  0
 20 21  2  3
 21 16  1  0
  8 22  1  0
 22 23  1  0
 23 24  1  0
 24 25  1  0
 25 26  1  0
 26 27  1  0
 27 22  1  0
M  END
> <smiles>
CC1=CN2C(=O)C=C(N=C2C(=C1)C(C)NC3=CC=CC=C3)N4CCOCC4

> <facility_reagent_id>
HMSL10171

> <salt_id>
101

> <chemical_name>
TGX221

> <inchi>
InChI=1S/C21H24N4O2/c1-15-12-18(16(2)22-17-6-4-3-5-7-17)21-23-19(13-20(26)25(21)14-15)24-8-10-27-11-9-24/h3-7,12-14,16,22H,8-11H2,1-2H3

> <inchi_key>

> <chebi_id>

> <lincs_id>

> <pubchem_cid>
n/a

> <chembl_id>
n/a

> <molecular_mass>
364.44

> <molecular_formula>
C21H24N4O2

$$$$

  SciTegic08031211342D

 24 27  0  0  0  0            999 V2000
    0.0000    0.0000    0.0000 C   0  0
    0.0000    0.0000    0.0000 C   0  0
    0.0000    0.0000    0.0000 C   0  0
    0.0000    0.0000    0.0000 N   0  0
    0.0000    0.0000    0.0000 C   0  0
    0.0000    0.0000    0.0000 C   0  0
    0.0000    0.0000    0.0000 C   0  0
    0.0000    0.0000    0.0000 C   0  0
    0.0000    0.0000    0.0000 C   0  0
    0.0000    0.0000    0.0000 C   0  0
    0.0000    0.0000    0.0000 C   0  0
    0.0000    0.0000    0.0000 C   0  0
    0.0000    0.0000    0.0000 C   0  0
    0.0000    0.0000    0.0000 O   0  0
    0.0000    0.0000    0.0000 N   0  0
    0.0000    0.0000    0.0000 C   0  0
    0.0000    0.0000    0.0000 O   0  0
    0.0000    0.0000    0.0000 S   0  0
    0.0000    0.0000    0.0000 C   0  0
    0.0000    0.0000    0.0000 C   0  0
    0.0000    0.0000    0.0000 C   0  0
    0.0000    0.0000    0.0000 N   0  0
    0.0000    0.0000    0.0000 C   0  0
    0.0000    0.0000    0.0000 C   0  0
  1  2  2  3
  2  3  1  0
  3  4  2  3
  4  5  1  0
  5  6  2  3
  6  7  1  0
  7  8  2  3
  8  3  1  0
  8  9  1  0
  9 10  2  3
 10  1  1  0
 10 11  1  0
 11 12  2  3
 12 13  1  0
 13 14  2  0
 13 15  1  0
 15 16  1  0
 16 17  2  0
 16 18  1  0
 18 12  1  0
  7 19  1  0
 19 20  2  3
 20 21  1  0
 21 22  2  3
 22 23  1  0
 23 24  2  3
 24 19  1  0
M  END
> <smiles>
C1=CC2=NC=CC(=C2C=C1C=C3C(=O)NC(=O)S3)C4=CC=NC=C4

> <facility_reagent_id>
HMSL10172

> <salt_id>
101

> <chemical_name>
GSK1059615

> <inchi>
InChI=1S/C18H11N3O2S/c22-17-16(24-18(23)21-17)10-11-1-2-15-14(9-11)13(5-8-20-15)12-3-6-19-7-4-12/h1-10H,(H,21,22,23)

> <inchi_key>

> <chebi_id>

> <lincs_id>

> <pubchem_cid>
n/a

> <chembl_id>
n/a

> <molecular_mass>
333.36

> <molecular_formula>
C18H11N3O2S

$$$$

  SciTegic08031211342D

 43 47  0  0  0  0            999 V2000
    0.0000    0.0000    0.0000 C   0  0
    0.0000    0.0000    0.0000 N   0  0
    0.0000    0.0000    0.0000 C   0  0
    0.0000    0.0000    0.0000 O   0  0
    0.0000    0.0000    0.0000 C   0  0
    0.0000    0.0000    0.0000 C   0  0
    0.0000    0.0000    0.0000 C   0  0
    0.0000    0.0000    0.0000 C   0  0
    0.0000    0.0000    0.0000 C   0  0
    0.0000    0.0000    0.0000 O   0  0
    0.0000    0.0000    0.0000 C   0  0
    0.0000    0.0000    0.0000 C   0  0
    0.0000    0.0000    0.0000 C   0  0
    0.0000    0.0000    0.0000 C   0  0
    0.0000    0.0000    0.0000 C   0  0
    0.0000    0.0000    0.0000 C   0  0
    0.0000    0.0000    0.0000 C   0  0
    0.0000    0.0000    0.0000 C   0  0
    0.0000    0.0000    0.0000 S   0  0
    0.0000    0.0000    0.0000 O   0  0
    0.0000    0.0000    0.0000 O   0  0
    0.0000    0.0000    0.0000 N   0  0
    0.0000    0.0000    0.0000 C   0  0
    0.0000    0.0000    0.0000 N   0  0
    0.0000    0.0000    0.0000 C   0  0
    0.0000    0.0000    0.0000 C   0  0
    0.0000    0.0000    0.0000 C   0  0
    0.0000    0.0000    0.0000 C   0  0
    0.0000    0.0000    0.0000 N   0  0
    0.0000    0.0000    0.0000 C   0  0
    0.0000    0.0000    0.0000 C   0  0
    0.0000    0.0000    0.0000 C   0  0
    0.0000    0.0000    0.0000 N   0  0
    0.0000    0.0000    0.0000 C   0  0
    0.0000    0.0000    0.0000 C   0  0
    0.0000    0.0000    0.0000 C   0  0
    0.0000    0.0000    0.0000 C   0  0
    0.0000    0.0000    0.0000 C   0  0
    0.0000    0.0000    0.0000 C   0  0
    0.0000    0.0000    0.0000 O   0  0
    0.0000    0.0000    0.0000 C   0  0
    0.0000    0.0000    0.0000 O   0  0
    0.0000    0.0000    0.0000 C   0  0
  1  2  1  0
  2  3  1  0
  3  4  2  0
  3  5  1  0
  5  6  1  0
  6  7  2  3
  7  8  1  0
  8  9  1  0
  7 10  1  0
 10 11  1  0
  5 12  2  3
 12 13  1  0
 13  8  2  3
  1 14  2  3
 14 15  1  0
 15 16  2  3
 16 17  1  0
 17 18  2  3
 18  1  1  0
 16 19  1  0
 19 20  2  0
 19 21  2  0
 19 22  1  0
 22 23  1  0
 23 24  2  3
 24 25  1  0
 25 26  2  3
 26 27  1  0
 23 28  1  0
 28 29  2  3
 29 30  1  0
 30 25  1  0
 30 31  2  3
 31 32  1  0
 32 27  2  3
 28 33  1  0
 33 34  1  0
 34 35  1  0
 35 36  2  3
 36 37  1  0
 37 38  2  3
 38 39  1  0
 39 34  2  3
 38 40  1  0
 40 41  1  0
 36 42  1  0
 42 43  1  0
M  END
> <smiles>
C1(NC(=O)C(C=C(C2C)OC)=CC=2)=CC=C(C=C1)S(=O)(=O)NC(=NC1=CC2)C(=NC1=CC=2)NC1C=C(C=C(C=1)OC)OC

> <facility_reagent_id>
HMSL10173

> <salt_id>
101

> <chemical_name>
XL765; SAR245409

> <inchi>
InChI=1S/C31H29N5O6S/c1-19-9-10-20(15-28(19)42-4)31(37)33-21-11-13-25(14-12-21)43(38,39)36-30-29(34-26-7-5-6-8-27(26)35-30)32-22-16-23(40-2)18-24(17-22)41-3/h5-18H,1-4H3,(H,32,34)(H,33,37)(H,35,36)

> <inchi_key>

> <chebi_id>

> <lincs_id>

> <pubchem_cid>
n/a

> <chembl_id>
n/a

> <molecular_mass>
599.66

> <molecular_formula>
C31H29N5O6S

$$$$

  SciTegic08031211342D

 26 29  0  0  0  0            999 V2000
    0.0000    0.0000    0.0000 C   0  0
    0.0000    0.0000    0.0000 C   0  0
    0.0000    0.0000    0.0000 C   0  0
    0.0000    0.0000    0.0000 C   0  0
    0.0000    0.0000    0.0000 O   0  0
    0.0000    0.0000    0.0000 C   0  0
    0.0000    0.0000    0.0000 C   0  0
    0.0000    0.0000    0.0000 C   0  0
    0.0000    0.0000    0.0000 C   0  0
    0.0000    0.0000    0.0000 C   0  0
    0.0000    0.0000    0.0000 C   0  0
    0.0000    0.0000    0.0000 C   0  0
    0.0000    0.0000    0.0000 C   0  0
    0.0000    0.0000    0.0000 C   0  0
    0.0000    0.0000    0.0000 C   0  0
    0.0000    0.0000    0.0000 C   0  0
    0.0000    0.0000    0.0000 O   0  0
    0.0000    0.0000    0.0000 C   0  0
    0.0000    0.0000    0.0000 C   0  0
    0.0000    0.0000    0.0000 N   0  0
    0.0000    0.0000    0.0000 C   0  0
    0.0000    0.0000    0.0000 N   0  0
    0.0000    0.0000    0.0000 C   0  0
    0.0000    0.0000    0.0000 S   0  0
    0.0000    0.0000    0.0000 C   0  0
    0.0000    0.0000    0.0000 O   0  0
  1  2  1  0
  2  3  2  3
  3  4  1  0
  4  5  1  0
  4  6  2  3
  6  7  1  0
  7  1  2  3
  3  8  1  0
  8  9  2  3
  9 10  1  0
 10 11  2  3
 11 12  1  0
 12 13  2  3
 13  8  1  0
 11 14  1  0
 14 15  1  0
 15 16  1  0
 16 17  1  0
 16 18  2  3
 18 19  1  0
 19 20  3  0
 18 21  1  0
 21 22  1  0
 22 23  1  0
 23 15  2  3
 23 24  1  0
 24 25  1  0
 25 14  2  3
 21 26  2  0
M  END
> <smiles>
C1C=C(C(O)=CC=1)C1=CC=C(C=C1)C1C2C(O)=C(C#N)C(NC=2SC=1)=O

> <facility_reagent_id>
HMSL10174

> <salt_id>
101

> <chemical_name>
A 769662

> <inchi>
InChI=1S/C20H12N2O3S/c21-9-14-18(24)17-15(10-26-20(17)22-19(14)25)12-7-5-11(6-8-12)13-3-1-2-4-16(13)23/h1-8,10,23H,(H2,22,24,25)

> <inchi_key>

> <chebi_id>

> <lincs_id>

> <pubchem_cid>
n/a

> <chembl_id>
n/a

> <molecular_mass>
360.39

> <molecular_formula>
C20H12N2O3S

$$$$

  SciTegic08031211342D

 38 39  0  0  1  0            999 V2000
    0.0000    0.0000    0.0000 O   0  0
    0.0000    0.0000    0.0000 C   0  0  1  0  0  0
    0.0000    0.0000    0.0000 C   0  0
    0.0000    0.0000    0.0000 C   0  0
    0.0000    0.0000    0.0000 O   0  0
    0.0000    0.0000    0.0000 O   0  0
    0.0000    0.0000    0.0000 C   0  0
    0.0000    0.0000    0.0000 O   0  0
    0.0000    0.0000    0.0000 O   0  0
    0.0000    0.0000    0.0000 C   0  0
    0.0000    0.0000    0.0000 C   0  0
    0.0000    0.0000    0.0000 N   0  0
    0.0000    0.0000    0.0000 C   0  0
    0.0000    0.0000    0.0000 C   0  0
    0.0000    0.0000    0.0000 C   0  0
    0.0000    0.0000    0.0000 C   0  0
    0.0000    0.0000    0.0000 N   0  0
    0.0000    0.0000    0.0000 C   0  0
    0.0000    0.0000    0.0000 O   0  0
    0.0000    0.0000    0.0000 C   0  0
    0.0000    0.0000    0.0000 C   0  0
    0.0000    0.0000    0.0000 C   0  0
    0.0000    0.0000    0.0000 N   0  0
    0.0000    0.0000    0.0000 C   0  0
    0.0000    0.0000    0.0000 C   0  0
    0.0000    0.0000    0.0000 C   0  0
    0.0000    0.0000    0.0000 C   0  0
    0.0000    0.0000    0.0000 O   0  0
    0.0000    0.0000    0.0000 N   0  0
    0.0000    0.0000    0.0000 C   0  0
    0.0000    0.0000    0.0000 C   0  0
    0.0000    0.0000    0.0000 C   0  0
    0.0000    0.0000    0.0000 C   0  0
    0.0000    0.0000    0.0000 F   0  0
    0.0000    0.0000    0.0000 C   0  0
    0.0000    0.0000    0.0000 C   0  0
    0.0000    0.0000    0.0000 C   0  0
    0.0000    0.0000    0.0000 C   0  0
  2  1  1  1
  2  3  1  0
  3  4  1  0
  4  5  1  0
  4  6  2  0
  2  7  1  0
  7  8  1  0
  7  9  2  0
 10 11  1  0
 11 12  1  0
 12 13  1  0
 13 14  1  0
 12 15  1  0
 15 16  1  0
 16 17  1  0
 17 18  1  0
 18 19  2  0
 18 20  1  0
 20 21  2  3
 21 22  1  0
 21 23  1  0
 23 24  1  0
 24 25  1  0
 25 26  2  3
 26 27  1  0
 27 28  2  0
 27 29  1  0
 29 30  1  0
 30 31  2  3
 31 26  1  0
 31 32  1  0
 32 33  2  3
 33 34  1  0
 33 35  1  0
 35 36  2  3
 36 30  1  0
 24 37  2  3
 37 20  1  0
 37 38  1  0
M  END
> <smiles>
O[C@@H](CC(O)=O)C(O)=O.CCN(CC)CCNC(=O)C1=C(C)NC(\C=C2/C(=O)NC3=C2C=C(F)C=C3)=C1C

> <facility_reagent_id>
HMSL10175

> <salt_id>
101

> <chemical_name>
Sunitinib malate; SU11248; Sutent

> <inchi>
InChI=1S/C22H27FN4O2.C4H6O5/c1-5-27(6-2)10-9-24-22(29)20-13(3)19(25-14(20)4)12-17-16-11-15(23)7-8-18(16)26-21(17)28;5-2(4(8)9)1-3(6)7/h7-8,11-12,25H,5-6,9-10H2,1-4H3,(H,24,29)(H,26,28);2,5H,1H2,(H,6,7
)(H,8,9)/b17-12-;/t;2-/m.0/s1

> <inchi_key>

> <chebi_id>

> <lincs_id>

> <pubchem_cid>
n/a

> <chembl_id>
n/a

> <molecular_mass>
532.56

> <molecular_formula>
C26H33FN4O7

$$$$

  SciTegic08031211342D

 18 19  0  0  0  0            999 V2000
    0.0000    0.0000    0.0000 C   0  0
    0.0000    0.0000    0.0000 C   0  0
    0.0000    0.0000    0.0000 C   0  0
    0.0000    0.0000    0.0000 C   0  0
    0.0000    0.0000    0.0000 C   0  0
    0.0000    0.0000    0.0000 C   0  0
    0.0000    0.0000    0.0000 C   0  0
    0.0000    0.0000    0.0000 C   0  0
    0.0000    0.0000    0.0000 C   0  0
    0.0000    0.0000    0.0000 O   0  0
    0.0000    0.0000    0.0000 N   0  0
    0.0000    0.0000    0.0000 C   0  0
    0.0000    0.0000    0.0000 C   0  0
    0.0000    0.0000    0.0000 C   0  0
    0.0000    0.0000    0.0000 N   0  0
    0.0000    0.0000    0.0000 C   0  0
    0.0000    0.0000    0.0000 C   0  0
    0.0000    0.0000    0.0000 N   0  0
  1  2  1  0
  2  3  1  0
  3  4  1  0
  4  5  1  0
  5  6  1  0
  6  7  1  0
  7  8  1  0
  8  3  1  0
  6  9  1  0
  9 10  2  0
  9 11  1  0
 11 12  1  0
 12 13  2  3
 13 14  1  0
 14 15  2  3
 15 16  1  0
 16 17  2  3
 17 12  1  0
  2 18  1  0
M  END
> <smiles>
CC(C1CCC(CC1)C(=O)NC2=CC=NC=C2)N

> <facility_reagent_id>
HMSL10176

> <salt_id>
101

> <chemical_name>
Y-27632

> <inchi>
InChI=1S/C14H21N3O/c1-10(15)11-2-4-12(5-3-11)14(18)17-13-6-8-16-9-7-13/h6-12H,2-5,15H2,1H3,(H,16,17,18)

> <inchi_key>

> <chebi_id>

> <lincs_id>

> <pubchem_cid>
n/a

> <chembl_id>
n/a

> <molecular_mass>
247.34

> <molecular_formula>
C14H21N3O

$$$$

  SciTegic08031211342D

 27 30  0  0  0  0            999 V2000
    0.0000    0.0000    0.0000 C   0  0
    0.0000    0.0000    0.0000 C   0  0
    0.0000    0.0000    0.0000 C   0  0
    0.0000    0.0000    0.0000 C   0  0
    0.0000    0.0000    0.0000 C   0  0
    0.0000    0.0000    0.0000 N   0  0
    0.0000    0.0000    0.0000 C   0  0
    0.0000    0.0000    0.0000 C   0  0
    0.0000    0.0000    0.0000 C   0  0
    0.0000    0.0000    0.0000 C   0  0
    0.0000    0.0000    0.0000 F   0  0
    0.0000    0.0000    0.0000 O   0  0
    0.0000    0.0000    0.0000 C   0  0
    0.0000    0.0000    0.0000 N   0  0
    0.0000    0.0000    0.0000 C   0  0
    0.0000    0.0000    0.0000 N   0  0
    0.0000    0.0000    0.0000 N   0  0
    0.0000    0.0000    0.0000 C   0  0
    0.0000    0.0000    0.0000 C   0  0
    0.0000    0.0000    0.0000 C   0  0
    0.0000    0.0000    0.0000 C   0  0
    0.0000    0.0000    0.0000 O   0  0
    0.0000    0.0000    0.0000 C   0  0
    0.0000    0.0000    0.0000 C   0  0
    0.0000    0.0000    0.0000 C   0  0
    0.0000    0.0000    0.0000 O   0  0
    0.0000    0.0000    0.0000 C   0  0
  1  2  1  0
  2  3  2  3
  3  4  1  0
  4  5  2  3
  5  6  1  0
  6  2  1  0
  5  7  1  0
  7  8  2  3
  8  9  1  0
  9 10  2  3
 10  4  1  0
 10 11  1  0
  9 12  1  0
 12 13  1  0
 13 14  2  3
 14 15  1  0
 15 16  2  3
 16 17  1  0
 17 18  1  0
 18 13  1  0
 18 19  2  3
 19 20  1  0
 20 21  2  3
 21 17  1  0
 20 22  1  0
 22 23  1  0
 23 24  1  0
 24 25  1  0
 24 26  1  0
 19 27  1  0
M  END
> <smiles>
CC1=CC2=C(N1)C=CC(=C2F)OC3=NC=NN4C3=C(C(=C4)OCC(C)O)C

> <facility_reagent_id>
HMSL10177

> <salt_id>
101

> <chemical_name>
Brivanib; BMS-540215

> <inchi>
InChI=1S/C19H19FN4O3/c1-10-6-13-14(23-10)4-5-15(17(13)20)27-19-18-12(3)16(26-8-11(2)25)7-24(18)22-9-21-19/h4-7,9,11,23,25H,8H2,1-3H3

> <inchi_key>

> <chebi_id>

> <lincs_id>

> <pubchem_cid>
n/a

> <chembl_id>
n/a

> <molecular_mass>
370.38

> <molecular_formula>
C19H19FN4O3

$$$$

  SciTegic08031211342D

 31 34  0  0  0  0            999 V2000
    0.0000    0.0000    0.0000 C   0  0
    0.0000    0.0000    0.0000 C   0  0
    0.0000    0.0000    0.0000 C   0  0
    0.0000    0.0000    0.0000 C   0  0
    0.0000    0.0000    0.0000 C   0  0
    0.0000    0.0000    0.0000 C   0  0
    0.0000    0.0000    0.0000 C   0  0
    0.0000    0.0000    0.0000 C   0  0
    0.0000    0.0000    0.0000 C   0  0
    0.0000    0.0000    0.0000 N   0  0
    0.0000    0.0000    0.0000 C   0  0
    0.0000    0.0000    0.0000 N   0  0
    0.0000    0.0000    0.0000 C   0  0
    0.0000    0.0000    0.0000 C   0  0
    0.0000    0.0000    0.0000 S   0  0
    0.0000    0.0000    0.0000 C   0  0
    0.0000    0.0000    0.0000 C   0  0
    0.0000    0.0000    0.0000 C   0  0
    0.0000    0.0000    0.0000 O   0  0
    0.0000    0.0000    0.0000 N   0  0
    0.0000    0.0000    0.0000 C   0  0
    0.0000    0.0000    0.0000 C   0  0
    0.0000    0.0000    0.0000 C   0  0
    0.0000    0.0000    0.0000 C   0  0
    0.0000    0.0000    0.0000 C   0  0
    0.0000    0.0000    0.0000 C   0  0
    0.0000    0.0000    0.0000 O   0  0
    0.0000    0.0000    0.0000 C   0  0
    0.0000    0.0000    0.0000 F   0  0
    0.0000    0.0000    0.0000 F   0  0
    0.0000    0.0000    0.0000 F   0  0
  1  2  2  3
  2  3  1  0
  3  4  2  3
  4  5  1  0
  5  6  2  3
  6  1  1  0
  5  7  1  0
  7  8  2  3
  8  9  1  0
  9 10  2  3
 10  4  1  0
  7 11  1  0
 11 12  1  0
 12 13  1  0
 13 14  2  3
 14 15  1  0
 15 16  1  0
 16 17  2  3
 17 13  1  0
 14 18  1  0
 18 19  2  0
 18 20  1  0
 20 21  1  0
 21 22  2  3
 22 23  1  0
 23 24  2  3
 24 25  1  0
 25 26  2  3
 26 21  1  0
 24 27  1  0
 27 28  1  0
 28 29  1  0
 28 30  1  0
 28 31  1  0
M  END
> <smiles>
C1=CC=C2C(=C1)C(=CC=N2)CNC3=C(SC=C3)C(=O)NC4=CC=C(C=C4)OC(F)(F)F

> <facility_reagent_id>
HMSL10178

> <salt_id>
101

> <chemical_name>
OSI-930

> <inchi>
InChI=1S/C22H16F3N3O2S/c23-22(24,25)30-16-7-5-15(6-8-16)28-21(29)20-19(10-12-31-20)27-13-14-9-11-26-18-4-2-1-3-17(14)18/h1-12,27H,13H2,(H,28,29)

> <inchi_key>

> <chebi_id>

> <lincs_id>

> <pubchem_cid>
n/a

> <chembl_id>
n/a

> <molecular_mass>
443.44

> <molecular_formula>
C22H16F3N3O2S

$$$$

  SciTegic08031211342D

 56 61  0  0  1  0            999 V2000
    0.0000    0.0000    0.0000 O   0  0
    0.0000    0.0000    0.0000 C   0  0
    0.0000    0.0000    0.0000 C   0  0
    0.0000    0.0000    0.0000 C   0  0
    0.0000    0.0000    0.0000 C   0  0
    0.0000    0.0000    0.0000 C   0  0
    0.0000    0.0000    0.0000 C   0  0
    0.0000    0.0000    0.0000 C   0  0
    0.0000    0.0000    0.0000 N   0  0
    0.0000    0.0000    0.0000 C   0  0
    0.0000    0.0000    0.0000 C   0  0
    0.0000    0.0000    0.0000 N   0  0
    0.0000    0.0000    0.0000 C   0  0
    0.0000    0.0000    0.0000 C   0  0
    0.0000    0.0000    0.0000 C   0  0
    0.0000    0.0000    0.0000 C   0  0
    0.0000    0.0000    0.0000 C   0  0
    0.0000    0.0000    0.0000 C   0  0
    0.0000    0.0000    0.0000 C   0  0
    0.0000    0.0000    0.0000 C   0  0
    0.0000    0.0000    0.0000 C   0  0
    0.0000    0.0000    0.0000 C   0  0
    0.0000    0.0000    0.0000 C   0  0
    0.0000    0.0000    0.0000 C   0  0
    0.0000    0.0000    0.0000 C   0  0
    0.0000    0.0000    0.0000 C   0  0
    0.0000    0.0000    0.0000 C   0  0
    0.0000    0.0000    0.0000 Cl  0  0
    0.0000    0.0000    0.0000 N   0  0
    0.0000    0.0000    0.0000 S   0  0
    0.0000    0.0000    0.0000 O   0  0
    0.0000    0.0000    0.0000 C   0  0
    0.0000    0.0000    0.0000 C   0  0
    0.0000    0.0000    0.0000 C   0  0
    0.0000    0.0000    0.0000 C   0  0
    0.0000    0.0000    0.0000 C   0  0
    0.0000    0.0000    0.0000 N   0  3
    0.0000    0.0000    0.0000 O   0  5
    0.0000    0.0000    0.0000 O   0  0
    0.0000    0.0000    0.0000 C   0  0
    0.0000    0.0000    0.0000 N   0  0
    0.0000    0.0000    0.0000 C   0  0  2  0  0  0
    0.0000    0.0000    0.0000 C   0  0
    0.0000    0.0000    0.0000 C   0  0
    0.0000    0.0000    0.0000 N   0  0
    0.0000    0.0000    0.0000 C   0  0
    0.0000    0.0000    0.0000 C   0  0
    0.0000    0.0000    0.0000 C   0  0
    0.0000    0.0000    0.0000 S   0  0
    0.0000    0.0000    0.0000 C   0  0
    0.0000    0.0000    0.0000 C   0  0
    0.0000    0.0000    0.0000 C   0  0
    0.0000    0.0000    0.0000 C   0  0
    0.0000    0.0000    0.0000 C   0  0
    0.0000    0.0000    0.0000 C   0  0
    0.0000    0.0000    0.0000 O   0  0
  1  2  2  0
  2  3  1  0
  3  4  2  3
  4  5  1  0
  5  6  2  3
  6  7  1  0
  7  8  2  3
  8  3  1  0
  6  9  1  0
  9 10  1  0
 10 11  1  0
 11 12  1  0
 12 13  1  0
 13 14  1  0
 14  9  1  0
 12 15  1  0
 15 16  1  0
 16 17  2  3
 17 18  1  0
 18 19  2  3
 19 20  1  0
 20 21  2  3
 21 16  1  0
 21 22  1  0
 22 23  2  3
 23 24  1  0
 24 25  2  3
 25 26  1  0
 26 27  2  3
 27 22  1  0
 25 28  1  0
  2 29  1  0
 29 30  1  0
 30 31  2  0
 30 32  1  0
 32 33  2  3
 33 34  1  0
 34 35  2  3
 35 36  1  0
 36 37  1  0
 37 38  1  0
 37 39  2  0
 36 40  2  3
 40 32  1  0
 35 41  1  0
 42 41  1  1
 42 43  1  0
 43 44  1  0
 44 45  1  0
 45 46  1  0
 45 47  1  0
 42 48  1  0
 48 49  1  0
 49 50  1  0
 50 51  2  3
 51 52  1  0
 52 53  2  3
 53 54  1  0
 54 55  2  3
 55 50  1  0
 30 56  2  0
M  CHG  2  37   1  38  -1
M  END
> <smiles>
O=C(C1=CC=C(C=C1)N2CCN(CC2)CC3=CC=CC=C3C4=CC=C(C=C4)Cl)NS(=O)(C5=CC=C(C([N+]([O-])=O)=C5)N[C@H](CCN(C)C)CSC6=CC=CC=C6)=O

> <facility_reagent_id>
HMSL10179

> <salt_id>
101

> <chemical_name>
ABT-737

> <inchi>
InChI=1S/C42H45ClN6O5S2/c1-46(2)23-22-35(30-55-37-9-4-3-5-10-37)44-40-21-20-38(28-41(40)49(51)52)56(53,54)45-42(50)32-14-18-36(19-15-32)48-26-24-47(25-27-48)29-33-8-6-7-11-39(33)31-12-16-34(43)17-13-3
1/h3-21,28,35,44H,22-27,29-30H2,1-2H3,(H,45,50)/t35-/m1/s1

> <inchi_key>

> <chebi_id>

> <lincs_id>

> <pubchem_cid>
n/a

> <chembl_id>
n/a

> <molecular_mass>
813.43

> <molecular_formula>
C42H45ClN6O5S2

$$$$

  SciTegic08031211342D

 32 35  0  0  0  0            999 V2000
    0.0000    0.0000    0.0000 N   0  0
    0.0000    0.0000    0.0000 C   0  0
    0.0000    0.0000    0.0000 C   0  0
    0.0000    0.0000    0.0000 C   0  0
    0.0000    0.0000    0.0000 N   0  0
    0.0000    0.0000    0.0000 C   0  0
    0.0000    0.0000    0.0000 N   0  0
    0.0000    0.0000    0.0000 C   0  0
    0.0000    0.0000    0.0000 C   0  0
    0.0000    0.0000    0.0000 N   0  0
    0.0000    0.0000    0.0000 C   0  0
    0.0000    0.0000    0.0000 N   0  0
    0.0000    0.0000    0.0000 C   0  0
    0.0000    0.0000    0.0000 C   0  0
    0.0000    0.0000    0.0000 C   0  0
    0.0000    0.0000    0.0000 N   0  0
    0.0000    0.0000    0.0000 C   0  0
    0.0000    0.0000    0.0000 C   0  0
    0.0000    0.0000    0.0000 C   0  0
    0.0000    0.0000    0.0000 N   0  0
    0.0000    0.0000    0.0000 C   0  0
    0.0000    0.0000    0.0000 C   0  0
    0.0000    0.0000    0.0000 C   0  0
    0.0000    0.0000    0.0000 C   0  0
    0.0000    0.0000    0.0000 C   0  0
    0.0000    0.0000    0.0000 Cl  0  0
    0.0000    0.0000    0.0000 C   0  0
    0.0000    0.0000    0.0000 C   0  0
    0.0000    0.0000    0.0000 Cl  0  0
    0.0000    0.0000    0.0000 N   0  0
    0.0000    0.0000    0.0000 C   0  0
    0.0000    0.0000    0.0000 C   0  0
  1  2  3  0
  2  3  1  0
  3  4  2  3
  4  5  1  0
  5  6  2  3
  6  7  1  0
  7  8  1  0
  8  9  1  0
  9 10  1  0
 10 11  1  0
 11 12  2  3
 12 13  1  0
 13 14  2  3
 14 15  1  0
 15 16  2  3
 16 17  1  0
 17 18  1  0
 17 19  2  3
 19 20  1  0
 20 15  1  0
 14 21  1  0
 21 22  1  0
 22 23  2  3
 23 24  1  0
 24 25  2  3
 25 26  1  0
 25 27  1  0
 27 28  2  3
 28 22  1  0
 28 29  1  0
 21 30  2  3
 30 11  1  0
  6 31  1  0
 31 32  2  3
 32  3  1  0
M  END
> <smiles>
N#CC1=CN=C(NCCNC2=NC=C(C3=NC(C)=CN3)C(C4=CC=C(Cl)C=C4Cl)=N2)C=C1

> <facility_reagent_id>
HMSL10180

> <salt_id>
101

> <chemical_name>
CHIR-99021; CT99021; KIN001-157

> <inchi>
InChI=1S/C22H18Cl2N8/c1-13-10-29-21(31-13)17-12-30-22(32-20(17)16-4-3-15(23)8-18(16)24)27-7-6-26-19-5-2-14(9-25)11-28-19/h2-5,8,10-12H,6-7H2,1H3,(H,26,28)(H,29,31)(H,27,30,32)

> <inchi_key>

> <chebi_id>

> <lincs_id>

> <pubchem_cid>
n/a

> <chembl_id>
n/a

> <molecular_mass>
465.34

> <molecular_formula>
C22H18Cl2N8

$$$$

  SciTegic08031211342D

 25 28  0  0  0  0            999 V2000
    0.0000    0.0000    0.0000 C   0  0
    0.0000    0.0000    0.0000 C   0  0
    0.0000    0.0000    0.0000 C   0  0
    0.0000    0.0000    0.0000 N   0  0
    0.0000    0.0000    0.0000 O   0  0
    0.0000    0.0000    0.0000 C   0  0
    0.0000    0.0000    0.0000 C   0  0
    0.0000    0.0000    0.0000 C   0  0
    0.0000    0.0000    0.0000 C   0  0
    0.0000    0.0000    0.0000 C   0  0
    0.0000    0.0000    0.0000 C   0  0
    0.0000    0.0000    0.0000 C   0  0
    0.0000    0.0000    0.0000 C   0  0
    0.0000    0.0000    0.0000 N   0  0
    0.0000    0.0000    0.0000 N   0  0
    0.0000    0.0000    0.0000 C   0  0
    0.0000    0.0000    0.0000 C   0  0
    0.0000    0.0000    0.0000 C   0  0
    0.0000    0.0000    0.0000 C   0  0
    0.0000    0.0000    0.0000 N   0  0
    0.0000    0.0000    0.0000 C   0  0
    0.0000    0.0000    0.0000 C   0  0
    0.0000    0.0000    0.0000 C   0  0
    0.0000    0.0000    0.0000 C   0  0
    0.0000    0.0000    0.0000 O   0  0
  1  2  1  0
  2  3  1  0
  3  4  2  3
  4  5  1  0
  3  6  1  0
  6  7  2  3
  7  1  1  0
  7  8  1  0
  8  9  2  3
  9 10  1  0
 10 11  2  3
 11  6  1  0
  9 12  1  0
 12 13  2  3
 13 14  1  0
 14 15  1  0
 15 16  2  3
 16 12  1  0
 16 17  1  0
 17 18  2  3
 18 19  1  0
 19 20  2  3
 20 21  1  0
 21 22  2  3
 22 17  1  0
 14 23  1  0
 23 24  1  0
 24 25  1  0
M  END
> <smiles>
C1CC(=NO)C2=C1C=C(C=C2)C3=CN(N=C3C4=CC=NC=C4)CCO

> <facility_reagent_id>
HMSL10181

> <salt_id>
101

> <chemical_name>
GDC-0879

> <inchi>
InChI=1S/C19H18N4O2/c24-10-9-23-12-17(19(21-23)13-5-7-20-8-6-13)15-1-3-16-14(11-15)2-4-18(16)22-25/h1,3,5-8,11-12,24-25H,2,4,9-10H2

> <inchi_key>

> <chebi_id>

> <lincs_id>

> <pubchem_cid>
n/a

> <chembl_id>
n/a

> <molecular_mass>
334.37

> <molecular_formula>
C19H18N4O2

$$$$

  SciTegic08031211342D

 28 31  0  0  0  0            999 V2000
    0.0000    0.0000    0.0000 C   0  0
    0.0000    0.0000    0.0000 C   0  0
    0.0000    0.0000    0.0000 C   0  0
    0.0000    0.0000    0.0000 C   0  0
    0.0000    0.0000    0.0000 C   0  0
    0.0000    0.0000    0.0000 C   0  0
    0.0000    0.0000    0.0000 C   0  0
    0.0000    0.0000    0.0000 F   0  0
    0.0000    0.0000    0.0000 N   0  0
    0.0000    0.0000    0.0000 C   0  0
    0.0000    0.0000    0.0000 O   0  0
    0.0000    0.0000    0.0000 N   0  0
    0.0000    0.0000    0.0000 C   0  0
    0.0000    0.0000    0.0000 C   0  0
    0.0000    0.0000    0.0000 C   0  0
    0.0000    0.0000    0.0000 C   0  0
    0.0000    0.0000    0.0000 C   0  0
    0.0000    0.0000    0.0000 C   0  0
    0.0000    0.0000    0.0000 C   0  0
    0.0000    0.0000    0.0000 C   0  0
    0.0000    0.0000    0.0000 C   0  0
    0.0000    0.0000    0.0000 C   0  0
    0.0000    0.0000    0.0000 C   0  0
    0.0000    0.0000    0.0000 C   0  0
    0.0000    0.0000    0.0000 N   0  0
    0.0000    0.0000    0.0000 N   0  0
    0.0000    0.0000    0.0000 C   0  0
    0.0000    0.0000    0.0000 N   0  0
  1  2  1  0
  2  3  2  3
  3  4  1  0
  4  5  2  3
  5  6  1  0
  6  7  2  3
  7  2  1  0
  5  8  1  0
  4  9  1  0
  9 10  1  0
 10 11  2  0
 10 12  1  0
 12 13  1  0
 13 14  2  3
 14 15  1  0
 15 16  2  3
 16 17  1  0
 17 18  2  3
 18 13  1  0
 16 19  1  0
 19 20  2  3
 20 21  1  0
 21 22  2  3
 22 23  1  0
 23 24  2  3
 24 19  1  0
 21 25  1  0
 25 26  1  0
 26 27  2  3
 27 20  1  0
 27 28  1  0
M  END
> <smiles>
CC1=CC(=C(C=C1)F)NC(=O)NC2=CC=C(C=C2)C3=C4C(=CC=C3)NN=C4N

> <facility_reagent_id>
HMSL10182

> <salt_id>
101

> <chemical_name>
ABT-869; Linifanib; AL-39324

> <inchi>
InChI=1S/C21H18FN5O/c1-12-5-10-16(22)18(11-12)25-21(28)24-14-8-6-13(7-9-14)15-3-2-4-17-19(15)20(23)27-26-17/h2-11H,1H3,(H3,23,26,27)(H2,24,25,28)

> <inchi_key>

> <chebi_id>

> <lincs_id>

> <pubchem_cid>
n/a

> <chembl_id>
n/a

> <molecular_mass>
375.4

> <molecular_formula>
C21H18FN5O

$$$$

  SciTegic08031211342D

 38 41  0  0  0  0            999 V2000
    0.0000    0.0000    0.0000 O   0  0
    0.0000    0.0000    0.0000 C   0  0
    0.0000    0.0000    0.0000 N   0  0
    0.0000    0.0000    0.0000 C   0  0
    0.0000    0.0000    0.0000 C   0  0
    0.0000    0.0000    0.0000 Cl  0  0
    0.0000    0.0000    0.0000 C   0  0
    0.0000    0.0000    0.0000 O   0  0
    0.0000    0.0000    0.0000 C   0  0
    0.0000    0.0000    0.0000 C   0  0
    0.0000    0.0000    0.0000 C   0  0
    0.0000    0.0000    0.0000 O   0  0
    0.0000    0.0000    0.0000 C   0  0
    0.0000    0.0000    0.0000 C   0  0
    0.0000    0.0000    0.0000 Cl  0  0
    0.0000    0.0000    0.0000 N   0  0
    0.0000    0.0000    0.0000 C   0  0
    0.0000    0.0000    0.0000 N   0  0
    0.0000    0.0000    0.0000 C   0  0
    0.0000    0.0000    0.0000 N   0  0
    0.0000    0.0000    0.0000 C   0  0
    0.0000    0.0000    0.0000 N   0  0
    0.0000    0.0000    0.0000 C   0  0
    0.0000    0.0000    0.0000 C   0  0
    0.0000    0.0000    0.0000 C   0  0
    0.0000    0.0000    0.0000 C   0  0
    0.0000    0.0000    0.0000 N   0  0
    0.0000    0.0000    0.0000 C   0  0
    0.0000    0.0000    0.0000 C   0  0
    0.0000    0.0000    0.0000 N   0  0
    0.0000    0.0000    0.0000 C   0  0
    0.0000    0.0000    0.0000 C   0  0
    0.0000    0.0000    0.0000 C   0  0
    0.0000    0.0000    0.0000 C   0  0
    0.0000    0.0000    0.0000 C   0  0
    0.0000    0.0000    0.0000 C   0  0
    0.0000    0.0000    0.0000 C   0  0
    0.0000    0.0000    0.0000 C   0  0
  1  2  2  0
  2  3  1  0
  3  4  1  0
  4  5  2  3
  5  6  1  0
  5  7  1  0
  7  8  1  0
  8  9  1  0
  7 10  2  3
 10 11  1  0
 11 12  1  0
 12 13  1  0
 11 14  2  3
 14  4  1  0
 14 15  1  0
  2 16  1  0
 16 17  1  0
 17 18  2  3
 18 19  1  0
 19 20  2  3
 20 21  1  0
 21 22  1  0
 22 23  1  0
 23 24  2  3
 24 25  1  0
 25 26  2  3
 26 27  1  0
 27 28  1  0
 28 29  1  0
 29 30  1  0
 30 31  1  0
 31 32  1  0
 30 33  1  0
 33 34  1  0
 34 27  1  0
 26 35  1  0
 35 36  2  3
 36 23  1  0
 21 37  2  3
 37 17  1  0
 16 38  1  0
M  END
> <smiles>
O=C(NC1=C(Cl)C(OC)=CC(OC)=C1Cl)N(C2=NC=NC(NC3=CC=C(N4CCN(CC)CC4)C=C3)=C2)C

> <facility_reagent_id>
HMSL10183

> <salt_id>
101

> <chemical_name>
BGJ398; KIN001-271; NVP-BGJ398

> <inchi>
InChI=1S/C26H31Cl2N7O3/c1-5-34-10-12-35(13-11-34)18-8-6-17(7-9-18)31-21-15-22(30-16-29-21)33(2)26(36)32-25-23(27)19(37-3)14-20(38-4)24(25)28/h6-9,14-16H,5,10-13H2,1-4H3,(H,32,36)(H,29,30,31)

> <inchi_key>

> <chebi_id>

> <lincs_id>

> <pubchem_cid>
n/a

> <chembl_id>
n/a

> <molecular_mass>
560.48

> <molecular_formula>
C26H31Cl2N7O3

$$$$

  SciTegic08031211342D

 32 32  0  0  0  0            999 V2000
    0.0000    0.0000    0.0000 C   0  0
    0.0000    0.0000    0.0000 O   0  0
    0.0000    0.0000    0.0000 C   0  0
    0.0000    0.0000    0.0000 C   0  0
    0.0000    0.0000    0.0000 C   0  0
    0.0000    0.0000    0.0000 C   0  0
    0.0000    0.0000    0.0000 C   0  0
    0.0000    0.0000    0.0000 C   0  0
    0.0000    0.0000    0.0000 C   0  0
    0.0000    0.0000    0.0000 S   0  0
    0.0000    0.0000    0.0000 O   0  0
    0.0000    0.0000    0.0000 O   0  0
    0.0000    0.0000    0.0000 C   0  0
    0.0000    0.0000    0.0000 C   0  0
    0.0000    0.0000    0.0000 C   0  0
    0.0000    0.0000    0.0000 C   0  0
    0.0000    0.0000    0.0000 C   0  0
    0.0000    0.0000    0.0000 C   0  0
    0.0000    0.0000    0.0000 C   0  0
    0.0000    0.0000    0.0000 C   0  0
    0.0000    0.0000    0.0000 O   0  0
    0.0000    0.0000    0.0000 C   0  0
    0.0000    0.0000    0.0000 O   0  0
    0.0000    0.0000    0.0000 C   0  0
    0.0000    0.0000    0.0000 O   0  0
    0.0000    0.0000    0.0000 C   0  0
    0.0000    0.0000    0.0000 N   0  0
    0.0000    0.0000    0.0000 C   0  0
    0.0000    0.0000    0.0000 C   0  0
    0.0000    0.0000    0.0000 O   0  0
    0.0000    0.0000    0.0000 O   0  5
    0.0000    0.0000    0.0000 Na  0  3
  1  2  1  0
  2  3  1  0
  3  4  2  3
  4  5  1  0
  5  6  2  3
  6  7  1  0
  7  8  2  3
  8  3  1  0
  6  9  1  0
  9 10  1  0
 10 11  2  0
 10 12  2  0
 10 13  1  0
 13 14  2  3
 14 15  1  0
 15 16  2  3
 16 17  1  0
 17 18  2  3
 18 19  1  0
 19 20  2  3
 20 15  1  0
 20 21  1  0
 21 22  1  0
 18 23  1  0
 23 24  1  0
 16 25  1  0
 25 26  1  0
  4 27  1  0
 27 28  1  0
 28 29  1  0
 29 30  2  0
 29 31  1  0
M  CHG  2  31  -1  32   1
M  END
> <smiles>
COC1=C(C=C(C=C1)CS(=O)(=O)C=CC2=C(C=C(C=C2OC)OC)OC)NCC(=O)[O-].[Na+]

> <facility_reagent_id>
HMSL10184

> <salt_id>
101

> <chemical_name>
ON-01910

> <inchi>
InChI=1S/C21H25NO8S.Na/c1-27-15-10-19(29-3)16(20(11-15)30-4)7-8-31(25,26)13-14-5-6-18(28-2)17(9-14)22-12-21(23)24;/h5-11,22H,12-13H2,1-4H3,(H,23,24);/q;+1/p-1

> <inchi_key>

> <chebi_id>

> <lincs_id>

> <pubchem_cid>
n/a

> <chembl_id>
n/a

> <molecular_mass>
473.47

> <molecular_formula>
C21H24NNaO8S

$$$$

  SciTegic08031211342D

 29 33  0  0  0  0            999 V2000
    0.0000    0.0000    0.0000 C   0  0
    0.0000    0.0000    0.0000 C   0  0
    0.0000    0.0000    0.0000 C   0  0
    0.0000    0.0000    0.0000 C   0  0
    0.0000    0.0000    0.0000 C   0  0
    0.0000    0.0000    0.0000 C   0  0
    0.0000    0.0000    0.0000 O   0  0
    0.0000    0.0000    0.0000 C   0  0
    0.0000    0.0000    0.0000 C   0  0
    0.0000    0.0000    0.0000 N   0  0
    0.0000    0.0000    0.0000 C   0  0
    0.0000    0.0000    0.0000 C   0  0
    0.0000    0.0000    0.0000 C   0  0
    0.0000    0.0000    0.0000 C   0  0
    0.0000    0.0000    0.0000 C   0  0
    0.0000    0.0000    0.0000 C   0  0
    0.0000    0.0000    0.0000 N   0  0
    0.0000    0.0000    0.0000 N   0  0
    0.0000    0.0000    0.0000 C   0  0
    0.0000    0.0000    0.0000 C   0  0
    0.0000    0.0000    0.0000 C   0  0
    0.0000    0.0000    0.0000 C   0  0
    0.0000    0.0000    0.0000 C   0  0
    0.0000    0.0000    0.0000 N   0  0
    0.0000    0.0000    0.0000 C   0  0
    0.0000    0.0000    0.0000 N   0  0
    0.0000    0.0000    0.0000 N   0  0
    0.0000    0.0000    0.0000 C   0  0
    0.0000    0.0000    0.0000 C   0  0
  1  2  1  0
  2  3  2  3
  3  4  1  0
  4  5  2  3
  5  6  1  0
  6  7  1  0
  7  8  1  0
  8  9  1  0
  9 10  1  0
 10 11  1  0
 11 12  1  0
 12 13  1  0
 13 14  1  0
 14 15  1  0
 15 10  1  0
  6 16  2  3
 16  2  1  0
  1 17  2  3
 17 18  1  0
 18 19  1  0
 19 20  2  3
 20  1  1  0
 20 21  1  0
 21 22  2  3
 22 23  1  0
 23 24  2  3
 24 25  1  0
 25 26  2  3
 26 27  1  0
 27 23  1  0
 22 28  1  0
 28 29  2  3
 29 19  1  0
M  END
> <smiles>
C1(C2=CC=CC(OCCN3CCCCC3)=C2)=NNC4=C1C=C(C5=NC=NN5)C=C4

> <facility_reagent_id>
HMSL10185

> <salt_id>
101

> <chemical_name>
CC-401

> <inchi>
InChI=1S/C22H24N6O/c1-2-9-28(10-3-1)11-12-29-18-6-4-5-16(13-18)21-19-14-17(22-23-15-24-27-22)7-8-20(19)25-26-21/h4-8,13-15H,1-3,9-12H2,(H,25,26)(H,23,24,27)

> <inchi_key>

> <chebi_id>

> <lincs_id>

> <pubchem_cid>
n/a

> <chembl_id>
n/a

> <molecular_mass>
388.47

> <molecular_formula>
C22H24N6O

$$$$

  SciTegic08031211342D

 27 30  0  0  0  0            999 V2000
    0.0000    0.0000    0.0000 C   0  0
    0.0000    0.0000    0.0000 N   0  3
    0.0000    0.0000    0.0000 C   0  0
    0.0000    0.0000    0.0000 C   0  0
    0.0000    0.0000    0.0000 C   0  0
    0.0000    0.0000    0.0000 C   0  0
    0.0000    0.0000    0.0000 C   0  0
    0.0000    0.0000    0.0000 C   0  0
    0.0000    0.0000    0.0000 C   0  0
    0.0000    0.0000    0.0000 C   0  0
    0.0000    0.0000    0.0000 C   0  0
    0.0000    0.0000    0.0000 O   0  0
    0.0000    0.0000    0.0000 C   0  0
    0.0000    0.0000    0.0000 O   0  0
    0.0000    0.0000    0.0000 C   0  0
    0.0000    0.0000    0.0000 C   0  0
    0.0000    0.0000    0.0000 C   0  0
    0.0000    0.0000    0.0000 C   0  0
    0.0000    0.0000    0.0000 C   0  0
    0.0000    0.0000    0.0000 C   0  0
    0.0000    0.0000    0.0000 C   0  0
    0.0000    0.0000    0.0000 C   0  0
    0.0000    0.0000    0.0000 C   0  0
    0.0000    0.0000    0.0000 O   0  0
    0.0000    0.0000    0.0000 C   0  0
    0.0000    0.0000    0.0000 O   0  0
    0.0000    0.0000    0.0000 Cl  0  5
  1  2  1  0
  2  3  2  3
  3  4  1  0
  4  5  2  3
  5  6  1  0
  6  7  2  3
  7  8  1  0
  8  9  2  3
  9 10  1  0
 10  5  1  0
 10 11  2  3
 11  2  1  0
  9 12  1  0
 12 13  1  0
  8 14  1  0
 14 15  1  0
  4 16  1  0
 16 17  2  3
 17 18  1  0
 18 19  2  3
 19 20  1  0
 20 21  2  3
 21 22  1  0
 22 23  2  3
 23 18  1  0
 23  3  1  0
 21 24  1  0
 24 25  1  0
 25 26  1  0
 26 20  1  0
M  CHG  2   2   1  27  -1
M  END
> <smiles>
C[N+]1=C2C(=C3C=CC(=C(C3=C1)OC)OC)C=CC4=CC5=C(C=C42)OCO5.[Cl-]

> <facility_reagent_id>
HMSL10186

> <salt_id>
101

> <chemical_name>
Chelerythrine chloride

> <inchi>
InChI=1S/C21H18NO4.ClH/c1-22-10-16-13(6-7-17(23-2)21(16)24-3)14-5-4-12-8-18-19(26-11-25-18)9-15(12)20(14)22;/h4-10H,11H2,1-3H3;1H/q+1;/p-1

> <inchi_key>

> <chebi_id>

> <lincs_id>

> <pubchem_cid>
n/a

> <chembl_id>
n/a

> <molecular_mass>
383.83

> <molecular_formula>
C21H18ClNO4

$$$$

  SciTegic08031211342D

 34 37  0  0  0  0            999 V2000
    0.0000    0.0000    0.0000 O   0  0
    0.0000    0.0000    0.0000 C   0  0
    0.0000    0.0000    0.0000 N   0  0
    0.0000    0.0000    0.0000 C   0  0
    0.0000    0.0000    0.0000 C   0  0
    0.0000    0.0000    0.0000 C   0  0
    0.0000    0.0000    0.0000 N   0  0
    0.0000    0.0000    0.0000 C   0  0
    0.0000    0.0000    0.0000 S   0  0
    0.0000    0.0000    0.0000 C   0  0
    0.0000    0.0000    0.0000 N   0  0
    0.0000    0.0000    0.0000 C   0  0
    0.0000    0.0000    0.0000 C   0  0
    0.0000    0.0000    0.0000 O   0  0
    0.0000    0.0000    0.0000 C   0  0
    0.0000    0.0000    0.0000 C   0  0
    0.0000    0.0000    0.0000 C   0  0
    0.0000    0.0000    0.0000 O   0  0
    0.0000    0.0000    0.0000 C   0  0
    0.0000    0.0000    0.0000 C   0  0
    0.0000    0.0000    0.0000 C   0  0
    0.0000    0.0000    0.0000 N   0  0
    0.0000    0.0000    0.0000 C   0  0
    0.0000    0.0000    0.0000 C   0  0
    0.0000    0.0000    0.0000 C   0  0
    0.0000    0.0000    0.0000 C   0  0
    0.0000    0.0000    0.0000 C   0  0
    0.0000    0.0000    0.0000 O   0  0
    0.0000    0.0000    0.0000 C   0  0
    0.0000    0.0000    0.0000 C   0  0
    0.0000    0.0000    0.0000 O   0  0
    0.0000    0.0000    0.0000 C   0  0
    0.0000    0.0000    0.0000 C   0  0
    0.0000    0.0000    0.0000 C   0  0
  1  2  2  0
  2  3  1  0
  3  4  1  0
  4  5  1  0
  5  6  2  3
  6  7  1  0
  7  8  2  3
  8  9  1  0
  9  5  1  0
  4 10  1  0
  2 11  1  0
 11 12  1  0
 12 13  2  3
 13 14  1  0
 14 15  1  0
 13 16  1  0
 16 17  2  3
 17 18  1  0
 18 19  1  0
 19 20  2  3
 20 21  1  0
 21 22  2  3
 22 23  1  0
 23 24  2  3
 24 19  1  0
 24 25  1  0
 25 26  2  3
 26 27  1  0
 27 28  1  0
 28 29  1  0
 27 30  2  3
 30 23  1  0
 26 31  1  0
 31 32  1  0
 17 33  1  0
 33 34  2  3
 34 12  1  0
M  END
> <smiles>
O=C(NC(C1=CN=CS1)C)NC2=C(OC)C=C(OC3=CC=NC4=C3C=C(C(OC)=C4)OC)C=C2

> <facility_reagent_id>
HMSL10187

> <salt_id>
101

> <chemical_name>
Ki20227

> <inchi>
InChI=1S/C24H24N4O5S/c1-14(23-12-25-13-34-23)27-24(29)28-17-6-5-15(9-20(17)30-2)33-19-7-8-26-18-11-22(32-4)21(31-3)10-16(18)19/h5-14H,1-4H3,(H2,27,28,29)

> <inchi_key>

> <chebi_id>

> <lincs_id>

> <pubchem_cid>
n/a

> <chembl_id>
n/a

> <molecular_mass>
480.54

> <molecular_formula>
C24H24N4O5S

$$$$

  SciTegic08031211342D

 34 37  0  0  0  0            999 V2000
    0.0000    0.0000    0.0000 I   0  0
    0.0000    0.0000    0.0000 C   0  0
    0.0000    0.0000    0.0000 C   0  0
    0.0000    0.0000    0.0000 N   0  0
    0.0000    0.0000    0.0000 C   0  0
    0.0000    0.0000    0.0000 C   0  0
    0.0000    0.0000    0.0000 C   0  0
    0.0000    0.0000    0.0000 N   0  0
    0.0000    0.0000    0.0000 C   0  0
    0.0000    0.0000    0.0000 C   0  0
    0.0000    0.0000    0.0000 C   0  0
    0.0000    0.0000    0.0000 C   0  0
    0.0000    0.0000    0.0000 C   0  0
    0.0000    0.0000    0.0000 S   0  0
    0.0000    0.0000    0.0000 O   0  0
    0.0000    0.0000    0.0000 N   0  0
    0.0000    0.0000    0.0000 C   0  0
    0.0000    0.0000    0.0000 N   0  0
    0.0000    0.0000    0.0000 C   0  0
    0.0000    0.0000    0.0000 C   0  0
    0.0000    0.0000    0.0000 C   0  0
    0.0000    0.0000    0.0000 C   0  0
    0.0000    0.0000    0.0000 C   0  0
    0.0000    0.0000    0.0000 N   0  0
    0.0000    0.0000    0.0000 C   0  0
    0.0000    0.0000    0.0000 N   0  0
    0.0000    0.0000    0.0000 C   0  0
    0.0000    0.0000    0.0000 C   0  0
    0.0000    0.0000    0.0000 C   0  0
    0.0000    0.0000    0.0000 C   0  0
    0.0000    0.0000    0.0000 O   0  0
    0.0000    0.0000    0.0000 C   0  0
    0.0000    0.0000    0.0000 N   0  0
    0.0000    0.0000    0.0000 C   0  0
  1  2  1  0
  2  3  2  3
  3  4  1  0
  4  5  1  0
  5  6  1  0
  6  7  1  0
  7  8  1  0
  8  9  1  0
  9 10  1  0
 10 11  2  3
 11 12  1  0
 12 13  2  3
 13 14  1  0
 14 10  1  0
  9 15  2  0
  3 16  1  0
 16 17  2  3
 17 18  1  0
 18 19  1  0
 19 20  2  3
 20 21  1  0
 21 22  2  3
 22 23  1  0
 23 24  1  0
 24 25  1  0
 25 26  1  0
 26 27  1  0
 27 28  1  0
 28 29  1  0
 29 30  1  0
 30 26  1  0
 25 31  2  0
 23 32  2  3
 32 19  1  0
 17 33  1  0
 33 34  2  3
 34  2  1  0
M  END
> <smiles>
IC1=C(NCCCNC(C2=CC=CS2)=O)N=C(NC3=CC=CC(NC(N4CCCC4)=O)=C3)N=C1

> <facility_reagent_id>
HMSL10188

> <salt_id>
101

> <chemical_name>
BX795

> <inchi>
InChI=1S/C23H26IN7O2S/c24-18-15-27-22(30-20(18)25-9-5-10-26-21(32)19-8-4-13-34-19)28-16-6-3-7-17(14-16)29-23(33)31-11-1-2-12-31/h3-4,6-8,13-15H,1-2,5,9-12H2,(H,26,32)(H,29,33)(H2,25,27,28,30)

> <inchi_key>

> <chebi_id>

> <lincs_id>

> <pubchem_cid>
n/a

> <chembl_id>
n/a

> <molecular_mass>
591.47

> <molecular_formula>
C23H26IN7O2S

$$$$

  SciTegic08031211342D

 36 39  0  0  0  0            999 V2000
    0.0000    0.0000    0.0000 C   0  0
    0.0000    0.0000    0.0000 N   0  0
    0.0000    0.0000    0.0000 C   0  0
    0.0000    0.0000    0.0000 C   0  0
    0.0000    0.0000    0.0000 N   0  0
    0.0000    0.0000    0.0000 C   0  0
    0.0000    0.0000    0.0000 C   0  0
    0.0000    0.0000    0.0000 C   0  0
    0.0000    0.0000    0.0000 O   0  0
    0.0000    0.0000    0.0000 C   0  0
    0.0000    0.0000    0.0000 C   0  0
    0.0000    0.0000    0.0000 O   0  0
    0.0000    0.0000    0.0000 C   0  0
    0.0000    0.0000    0.0000 C   0  0
    0.0000    0.0000    0.0000 C   0  0
    0.0000    0.0000    0.0000 C   0  0
    0.0000    0.0000    0.0000 N   0  0
    0.0000    0.0000    0.0000 C   0  0
    0.0000    0.0000    0.0000 C   0  0
    0.0000    0.0000    0.0000 C   0  0
    0.0000    0.0000    0.0000 O   0  0
    0.0000    0.0000    0.0000 C   0  0
    0.0000    0.0000    0.0000 C   0  0
    0.0000    0.0000    0.0000 Cl  0  0
    0.0000    0.0000    0.0000 C   0  0
    0.0000    0.0000    0.0000 C   0  0
    0.0000    0.0000    0.0000 Cl  0  0
    0.0000    0.0000    0.0000 C   0  0
    0.0000    0.0000    0.0000 C   0  0
    0.0000    0.0000    0.0000 N   0  0
    0.0000    0.0000    0.0000 C   0  0
    0.0000    0.0000    0.0000 N   0  0
    0.0000    0.0000    0.0000 C   0  0
    0.0000    0.0000    0.0000 C   0  0
    0.0000    0.0000    0.0000 C   0  0
    0.0000    0.0000    0.0000 C   0  0
  1  2  1  0
  2  3  1  0
  3  4  1  0
  4  5  1  0
  5  6  1  0
  6  7  1  0
  7  8  1  0
  8  9  1  0
  9 10  1  0
 10 11  2  3
 11 12  1  0
 12 13  1  0
 11 14  1  0
 14 15  2  3
 15 16  1  0
 16 17  1  0
 17 18  1  0
 18 19  2  3
 19 20  1  0
 20 21  1  0
 21 22  1  0
 20 23  2  3
 23 24  1  0
 23 25  1  0
 25 26  2  3
 26 18  1  0
 26 27  1  0
 16 28  2  3
 28 29  1  0
 29 30  3  0
 28 31  1  0
 31 32  2  3
 32 33  1  0
 33 15  1  0
 33 34  2  3
 34 10  1  0
  5 35  1  0
 35 36  1  0
 36  2  1  0
M  END
> <smiles>
CN1CCN(CCCOC2=C(OC)C=C3C(NC4=CC(OC)=C(Cl)C=C4Cl)=C(C#N)C=NC3=C2)CC1

> <facility_reagent_id>
HMSL10189

> <salt_id>
101

> <chemical_name>
Bosutinib; SKI-606

> <inchi>
InChI=1S/C26H29Cl2N5O3/c1-32-6-8-33(9-7-32)5-4-10-36-25-13-21-18(11-24(25)35-3)26(17(15-29)16-30-21)31-22-14-23(34-2)20(28)12-19(22)27/h11-14,16H,4-10H2,1-3H3,(H,30,31)

> <inchi_key>

> <chebi_id>

> <lincs_id>

> <pubchem_cid>
n/a

> <chembl_id>
n/a

> <molecular_mass>
530.45

> <molecular_formula>
C26H29Cl2N5O3

$$$$

  SciTegic08031211342D

 24 25  0  0  0  0            999 V2000
    0.0000    0.0000    0.0000 C   0  0
    0.0000    0.0000    0.0000 C   0  0
    0.0000    0.0000    0.0000 N   0  0
    0.0000    0.0000    0.0000 C   0  0
    0.0000    0.0000    0.0000 N   0  0
    0.0000    0.0000    0.0000 C   0  0
    0.0000    0.0000    0.0000 C   0  0
    0.0000    0.0000    0.0000 C   0  0
    0.0000    0.0000    0.0000 C   0  0
    0.0000    0.0000    0.0000 C   0  0
    0.0000    0.0000    0.0000 C   0  0
    0.0000    0.0000    0.0000 S   0  0
    0.0000    0.0000    0.0000 O   0  0
    0.0000    0.0000    0.0000 N   0  0
    0.0000    0.0000    0.0000 C   0  0
    0.0000    0.0000    0.0000 C   0  0
    0.0000    0.0000    0.0000 O   0  0
    0.0000    0.0000    0.0000 O   0  0
    0.0000    0.0000    0.0000 C   0  0
    0.0000    0.0000    0.0000 Cl  0  0
    0.0000    0.0000    0.0000 C   0  0
    0.0000    0.0000    0.0000 C   0  0
    0.0000    0.0000    0.0000 S   0  0
    0.0000    0.0000    0.0000 O   0  0
  1  2  1  0
  2  3  1  0
  3  4  1  0
  4  5  2  3
  5  6  1  0
  6  7  1  0
  6  8  2  3
  8  9  1  0
  9 10  2  3
 10 11  1  0
 11 12  1  0
 12 13  2  0
 12 14  1  0
 14 15  1  0
 15 16  1  0
 16 17  1  0
 12 18  2  0
 11 19  2  3
 19 20  1  0
 19 21  1  0
 21 22  2  3
 22  9  1  0
  8 23  1  0
 23  4  1  0
  2 24  2  0
M  END
> <smiles>
CC(NC1=NC(C)=C(C2=CC(S(=O)(NCCO)=O)=C(Cl)C=C2)S1)=O

> <facility_reagent_id>
HMSL10190

> <salt_id>
101

> <chemical_name>
PIK-93

> <inchi>
InChI=1S/C14H16ClN3O4S2/c1-8-13(23-14(17-8)18-9(2)20)10-3-4-11(15)12(7-10)24(21,22)16-5-6-19/h3-4,7,16,19H,5-6H2,1-2H3,(H,17,18,20)

> <inchi_key>

> <chebi_id>

> <lincs_id>

> <pubchem_cid>
n/a

> <chembl_id>
n/a

> <molecular_mass>
389.88

> <molecular_formula>
C14H16ClN3O4S2

$$$$

  SciTegic08031211342D

 30 32  0  0  0  0            999 V2000
    0.0000    0.0000    0.0000 C   0  0
    0.0000    0.0000    0.0000 C   0  0
    0.0000    0.0000    0.0000 O   0  0
    0.0000    0.0000    0.0000 N   0  0
    0.0000    0.0000    0.0000 C   0  0
    0.0000    0.0000    0.0000 C   0  0
    0.0000    0.0000    0.0000 C   0  0
    0.0000    0.0000    0.0000 C   0  0
    0.0000    0.0000    0.0000 C   0  0
    0.0000    0.0000    0.0000 C   0  0
    0.0000    0.0000    0.0000 C   0  0
    0.0000    0.0000    0.0000 C   0  0
    0.0000    0.0000    0.0000 C   0  0
    0.0000    0.0000    0.0000 C   0  0
    0.0000    0.0000    0.0000 C   0  0
    0.0000    0.0000    0.0000 N   0  3
    0.0000    0.0000    0.0000 C   0  0
    0.0000    0.0000    0.0000 C   0  0
    0.0000    0.0000    0.0000 O   0  5
    0.0000    0.0000    0.0000 S   0  0
    0.0000    0.0000    0.0000 O   0  0
    0.0000    0.0000    0.0000 O   0  0
    0.0000    0.0000    0.0000 C   0  0
    0.0000    0.0000    0.0000 C   0  0
    0.0000    0.0000    0.0000 C   0  0
    0.0000    0.0000    0.0000 C   0  0
    0.0000    0.0000    0.0000 C   0  0
    0.0000    0.0000    0.0000 C   0  0
    0.0000    0.0000    0.0000 O   0  0
    0.0000    0.0000    0.0000 C   0  0
  1  2  1  0
  2  3  2  0
  2  4  1  0
  4  5  1  0
  5  6  2  3
  6  7  1  0
  7  8  2  3
  8  9  1  0
  9 10  2  3
 10  5  1  0
 10 11  1  0
 11 12  2  3
 12 13  1  0
 13 14  2  3
 14 15  1  0
 15 16  2  3
 16 17  1  0
 17 18  2  3
 18 13  1  0
 16 19  1  0
  4 20  1  0
 20 21  2  0
 20 22  2  0
 20 23  1  0
 23 24  2  3
 24 25  1  0
 25 26  2  3
 26 27  1  0
 27 28  2  3
 28 23  1  0
 26 29  1  0
 29 30  1  0
M  CHG  2  16   1  19  -1
M  END
> <smiles>
CC(=O)N(C1=CC=CC=C1C=CC2=CC=[N+](C=C2)[O-])S(=O)(=O)C3=CC=C(C=C3)OC

> <facility_reagent_id>
HMSL10191

> <salt_id>
101

> <chemical_name>
HMN-214

> <inchi>
InChI=1S/C22H20N2O5S/c1-17(25)24(30(27,28)21-11-9-20(29-2)10-12-21)22-6-4-3-5-19(22)8-7-18-13-15-23(26)16-14-18/h3-16H,1-2H3

> <inchi_key>

> <chebi_id>

> <lincs_id>

> <pubchem_cid>
n/a

> <chembl_id>
n/a

> <molecular_mass>
424.47

> <molecular_formula>
C22H20N2O5S

$$$$

  SciTegic08031211342D

 25 28  0  0  0  0            999 V2000
    0.0000    0.0000    0.0000 O   0  0
    0.0000    0.0000    0.0000 C   0  0
    0.0000    0.0000    0.0000 N   0  0
    0.0000    0.0000    0.0000 C   0  0
    0.0000    0.0000    0.0000 C   0  0
    0.0000    0.0000    0.0000 N   0  0
    0.0000    0.0000    0.0000 C   0  0
    0.0000    0.0000    0.0000 C   0  0
    0.0000    0.0000    0.0000 C   0  0
    0.0000    0.0000    0.0000 C   0  0
    0.0000    0.0000    0.0000 C   0  0
    0.0000    0.0000    0.0000 C   0  0
    0.0000    0.0000    0.0000 C   0  0
    0.0000    0.0000    0.0000 C   0  0
    0.0000    0.0000    0.0000 C   0  0
    0.0000    0.0000    0.0000 C   0  0
    0.0000    0.0000    0.0000 C   0  0
    0.0000    0.0000    0.0000 N   0  0
    0.0000    0.0000    0.0000 N   0  0
    0.0000    0.0000    0.0000 C   0  0
    0.0000    0.0000    0.0000 C   0  0
    0.0000    0.0000    0.0000 C   0  0
    0.0000    0.0000    0.0000 C   0  0
    0.0000    0.0000    0.0000 C   0  0
    0.0000    0.0000    0.0000 C   0  0
  1  2  2  0
  2  3  1  0
  3  4  1  0
  4  5  1  0
  5  6  1  0
  6  7  1  0
  7  8  1  0
  8  3  1  0
  2  9  1  0
  9 10  1  0
 10 11  2  3
  9 12  2  3
 12 13  1  0
 13 14  2  3
 14 11  1  0
 14 15  1  0
 15 16  2  3
 16 17  1  0
 17 18  2  3
 18 19  1  0
 19 20  1  0
 20 21  2  3
 21 17  1  0
 21 22  1  0
 22 23  2  3
 23 24  1  0
 24 25  2  3
 25 20  1  0
M  END
> <smiles>
O=C(N1CCNCC1)C(C=C2)=CC=C2/C=C/C3=NNC4=C3C=CC=C4

> <facility_reagent_id>
HMSL10192

> <salt_id>
101

> <chemical_name>
KW2449; KW-2449

> <inchi>
InChI=1S/C20H20N4O/c25-20(24-13-11-21-12-14-24)16-8-5-15(6-9-16)7-10-19-17-3-1-2-4-18(17)22-23-19/h1-10,21H,11-14H2,(H,22,23)/b10-7+

> <inchi_key>

> <chebi_id>

> <lincs_id>

> <pubchem_cid>
n/a

> <chembl_id>
n/a

> <molecular_mass>
332.4

> <molecular_formula>
C20H20N4O

$$$$

  SciTegic08031211342D

 32 36  0  0  0  0            999 V2000
    0.0000    0.0000    0.0000 O   0  0
    0.0000    0.0000    0.0000 S   0  0
    0.0000    0.0000    0.0000 C   0  0
    0.0000    0.0000    0.0000 C   0  0
    0.0000    0.0000    0.0000 C   0  0
    0.0000    0.0000    0.0000 C   0  0
    0.0000    0.0000    0.0000 C   0  0
    0.0000    0.0000    0.0000 C   0  0
    0.0000    0.0000    0.0000 C   0  0
    0.0000    0.0000    0.0000 C   0  0
    0.0000    0.0000    0.0000 N   0  0
    0.0000    0.0000    0.0000 C   0  0
    0.0000    0.0000    0.0000 C   0  0
    0.0000    0.0000    0.0000 C   0  0
    0.0000    0.0000    0.0000 C   0  0
    0.0000    0.0000    0.0000 C   0  0
    0.0000    0.0000    0.0000 C   0  0
    0.0000    0.0000    0.0000 C   0  0
    0.0000    0.0000    0.0000 O   0  0
    0.0000    0.0000    0.0000 C   0  0
    0.0000    0.0000    0.0000 C   0  0
    0.0000    0.0000    0.0000 C   0  0
    0.0000    0.0000    0.0000 C   0  0
    0.0000    0.0000    0.0000 C   0  0
    0.0000    0.0000    0.0000 C   0  0
    0.0000    0.0000    0.0000 C   0  0
    0.0000    0.0000    0.0000 C   0  0
    0.0000    0.0000    0.0000 C   0  0
    0.0000    0.0000    0.0000 N   0  0
    0.0000    0.0000    0.0000 C   0  0
    0.0000    0.0000    0.0000 C   0  0
    0.0000    0.0000    0.0000 N   0  0
  1  2  2  0
  2  3  1  0
  2  4  1  0
  4  5  1  0
  5  6  2  3
  4  7  2  3
  7  8  1  0
  8  9  2  3
  9  6  1  0
  9 10  1  0
 10 11  2  3
 11 12  1  0
 12 13  1  0
 13 14  2  3
 14 15  1  0
 15 16  2  3
 16 17  1  0
 17 18  2  3
 18 19  1  0
 19 20  1  0
 18 21  1  0
 21 22  2  3
 22 15  1  0
 22 23  1  0
 23 24  2  3
 24 13  1  0
 12 25  2  3
 25 26  1  0
 26 27  2  3
 27 28  1  0
 28 29  2  3
 29 30  1  0
 30 31  2  3
 31 26  1  0
 25 32  1  0
 32 10  1  0
M  END
> <smiles>
O=S(C)C(C=C1)=CC=C1C2=NC(C3=CC4=CC=C(OC)C=C4C=C3)=C(C5=CC=NC=C5)N2

> <facility_reagent_id>
HMSL10193

> <salt_id>
101

> <chemical_name>
Kin236; Tie2 kinase inhibitor; Kin236

> <inchi>
InChI=1S/C26H21N3O2S/c1-31-22-8-5-19-15-21(4-3-20(19)16-22)25-24(17-11-13-27-14-12-17)28-26(29-25)18-6-9-23(10-7-18)32(2)30/h3-16H,1-2H3,(H,28,29)

> <inchi_key>

> <chebi_id>

> <lincs_id>

> <pubchem_cid>
n/a

> <chembl_id>
n/a

> <molecular_mass>
439.53

> <molecular_formula>
C26H21N3O2S

$$$$

  SciTegic08031211342D

 46 49  0  0  1  0            999 V2000
    0.0000    0.0000    0.0000 O   0  0
    0.0000    0.0000    0.0000 C   0  0
    0.0000    0.0000    0.0000 C   0  0  2  0  0  0
    0.0000    0.0000    0.0000 C   0  0
    0.0000    0.0000    0.0000 C   0  0
    0.0000    0.0000    0.0000 O   0  0
    0.0000    0.0000    0.0000 O   0  0
    0.0000    0.0000    0.0000 O   0  0
    0.0000    0.0000    0.0000 O   0  0
    0.0000    0.0000    0.0000 O   0  0
    0.0000    0.0000    0.0000 C   0  0
    0.0000    0.0000    0.0000 N   0  0
    0.0000    0.0000    0.0000 C   0  0
    0.0000    0.0000    0.0000 C   0  0
    0.0000    0.0000    0.0000 C   0  0
    0.0000    0.0000    0.0000 C   0  0
    0.0000    0.0000    0.0000 C   0  0
    0.0000    0.0000    0.0000 C   0  0
    0.0000    0.0000    0.0000 O   0  0
    0.0000    0.0000    0.0000 C   0  0
    0.0000    0.0000    0.0000 C   0  0
    0.0000    0.0000    0.0000 C   0  0
    0.0000    0.0000    0.0000 N   0  0
    0.0000    0.0000    0.0000 C   0  0
    0.0000    0.0000    0.0000 C   0  0
    0.0000    0.0000    0.0000 C   0  0
    0.0000    0.0000    0.0000 O   0  0
    0.0000    0.0000    0.0000 C   0  0
    0.0000    0.0000    0.0000 C   0  0
    0.0000    0.0000    0.0000 C   0  0
    0.0000    0.0000    0.0000 C   0  0
    0.0000    0.0000    0.0000 O   0  0
    0.0000    0.0000    0.0000 C   0  0
    0.0000    0.0000    0.0000 C   0  0
    0.0000    0.0000    0.0000 C   0  0
    0.0000    0.0000    0.0000 C   0  0
    0.0000    0.0000    0.0000 C   0  0
    0.0000    0.0000    0.0000 N   0  0
    0.0000    0.0000    0.0000 C   0  0
    0.0000    0.0000    0.0000 C   0  0
    0.0000    0.0000    0.0000 C   0  0
    0.0000    0.0000    0.0000 C   0  0
    0.0000    0.0000    0.0000 C   0  0
    0.0000    0.0000    0.0000 C   0  0
    0.0000    0.0000    0.0000 F   0  0
    0.0000    0.0000    0.0000 O   0  0
  1  2  2  0
  2  3  1  0
  3  4  1  0
  4  5  1  0
  5  6  1  0
  5  7  2  0
  3  8  1  1
  2  9  1  0
 10 11  2  0
 11 12  1  0
 12 13  1  0
 13 14  2  3
 14 15  1  0
 15 16  2  3
 16 17  1  0
 17 18  2  3
 18 13  1  0
 16 19  1  0
 19 20  1  0
 20 21  2  3
 21 22  1  0
 22 23  2  3
 23 24  1  0
 24 25  2  3
 25 26  1  0
 26 27  1  0
 27 28  1  0
 26 29  2  3
 29 30  1  0
 30 31  2  3
 31 20  1  0
 31 24  1  0
 29 32  1  0
 32 33  1  0
 11 34  1  0
 34 35  1  0
 35 36  1  0
 36 34  1  0
 34 37  1  0
 37 38  1  0
 38 39  1  0
 39 40  2  3
 40 41  1  0
 41 42  2  3
 42 43  1  0
 43 44  2  3
 44 39  1  0
 42 45  1  0
 37 46  2  0
M  END
> <smiles>
O=C([C@H](CC(O)=O)O)O.O=C(NC1=CC=C(C=C1)OC2=CC=NC3=CC(OC)=C(C=C23)OC)C4(CC4)C(NC5=CC=C(C=C5)F)=O

> <facility_reagent_id>
HMSL10194

> <salt_id>
101

> <chemical_name>
XL-184; Cabozantinib; Cabozantinib S-malate; BMS-907351

> <inchi>
InChI=1S/C28H24FN3O5.C4H6O5/c1-35-24-15-21-22(16-25(24)36-2)30-14-11-23(21)37-20-9-7-19(8-10-20)32-27(34)28(12-13-28)26(33)31-18-5-3-17(29)4-6-18;5-2(4(8)9)1-3(6)7/h3-11,14-16H,12-13H2,1-2H3,(H,31,33)
(H,32,34);2,5H,1H2,(H,6,7)(H,8,9)/t;2-/m.0/s1

> <inchi_key>

> <chebi_id>

> <lincs_id>

> <pubchem_cid>
n/a

> <chembl_id>
n/a

> <molecular_mass>
635.59

> <molecular_formula>
C32H30FN3O10

$$$$

  SciTegic08031211342D

 30 33  0  0  0  0            999 V2000
    0.0000    0.0000    0.0000 O   0  0
    0.0000    0.0000    0.0000 C   0  0
    0.0000    0.0000    0.0000 C   0  0
    0.0000    0.0000    0.0000 C   0  0
    0.0000    0.0000    0.0000 C   0  0
    0.0000    0.0000    0.0000 C   0  0
    0.0000    0.0000    0.0000 N   0  0
    0.0000    0.0000    0.0000 C   0  0
    0.0000    0.0000    0.0000 N   0  0
    0.0000    0.0000    0.0000 N   0  0
    0.0000    0.0000    0.0000 C   0  0
    0.0000    0.0000    0.0000 C   0  0
    0.0000    0.0000    0.0000 C   0  0
    0.0000    0.0000    0.0000 C   0  0
    0.0000    0.0000    0.0000 N   0  0
    0.0000    0.0000    0.0000 C   0  0
    0.0000    0.0000    0.0000 C   0  0
    0.0000    0.0000    0.0000 N   0  0
    0.0000    0.0000    0.0000 C   0  0
    0.0000    0.0000    0.0000 C   0  0
    0.0000    0.0000    0.0000 C   0  0
    0.0000    0.0000    0.0000 C   0  0
    0.0000    0.0000    0.0000 C   0  0
    0.0000    0.0000    0.0000 N   0  0
    0.0000    0.0000    0.0000 C   0  0
    0.0000    0.0000    0.0000 C   0  0
    0.0000    0.0000    0.0000 C   0  0
    0.0000    0.0000    0.0000 C   0  0
    0.0000    0.0000    0.0000 C   0  0
    0.0000    0.0000    0.0000 C   0  0
  1  2  2  0
  2  3  1  0
  3  4  2  3
  4  5  1  0
  5  6  1  0
  6  7  3  0
  5  8  2  3
  8  9  1  0
  9  3  1  0
  2 10  1  0
 10 11  1  0
 11 12  2  3
 12 13  1  0
 13 14  2  3
 14 15  1  0
 15 16  1  0
 16 17  1  0
 17 18  1  0
 18 19  1  0
 18 20  1  0
 20 21  1  0
 21 15  1  0
 14 22  1  0
 22 23  2  3
 23 11  1  0
 23 24  1  0
 24 25  1  0
 25 26  1  0
 26 27  1  0
 27 28  1  0
 27 29  1  0
 29 30  1  0
 30 24  1  0
M  END
> <smiles>
O=C(C1=CC(C#N)=CN1)NC2=CC=C(N3CCN(C)CC3)C=C2N4CCC(C)CC4

> <facility_reagent_id>
HMSL10195

> <salt_id>
101

> <chemical_name>
KIN001-269

> <inchi>
InChI=1S/C23H30N6O/c1-17-5-7-29(8-6-17)22-14-19(28-11-9-27(2)10-12-28)3-4-20(22)26-23(30)21-13-18(15-24)16-25-21/h3-4,13-14,16-17,25H,5-12H2,1-2H3,(H,26,30)

> <inchi_key>

> <chebi_id>

> <lincs_id>

> <pubchem_cid>
n/a

> <chembl_id>
n/a

> <molecular_mass>
406.52

> <molecular_formula>
C23H30N6O

$$$$

  SciTegic08031211342D

 36 40  0  0  0  0            999 V2000
    0.0000    0.0000    0.0000 C   0  0
    0.0000    0.0000    0.0000 S   0  0
    0.0000    0.0000    0.0000 O   0  0
    0.0000    0.0000    0.0000 N   0  0
    0.0000    0.0000    0.0000 C   0  0
    0.0000    0.0000    0.0000 C   0  0
    0.0000    0.0000    0.0000 C   0  0
    0.0000    0.0000    0.0000 N   0  0
    0.0000    0.0000    0.0000 C   0  0
    0.0000    0.0000    0.0000 N   0  0
    0.0000    0.0000    0.0000 C   0  0
    0.0000    0.0000    0.0000 N   0  0
    0.0000    0.0000    0.0000 C   0  0
    0.0000    0.0000    0.0000 C   0  0
    0.0000    0.0000    0.0000 C   0  0
    0.0000    0.0000    0.0000 C   0  0
    0.0000    0.0000    0.0000 C   0  0
    0.0000    0.0000    0.0000 C   0  0
    0.0000    0.0000    0.0000 N   0  0
    0.0000    0.0000    0.0000 C   0  0
    0.0000    0.0000    0.0000 C   0  0
    0.0000    0.0000    0.0000 C   0  0
    0.0000    0.0000    0.0000 C   0  0
    0.0000    0.0000    0.0000 C   0  0
    0.0000    0.0000    0.0000 C   0  0
    0.0000    0.0000    0.0000 C   0  0
    0.0000    0.0000    0.0000 O   0  0
    0.0000    0.0000    0.0000 C   0  0
    0.0000    0.0000    0.0000 O   0  0
    0.0000    0.0000    0.0000 C   0  0
    0.0000    0.0000    0.0000 C   0  0
    0.0000    0.0000    0.0000 C   0  0
    0.0000    0.0000    0.0000 C   0  0
    0.0000    0.0000    0.0000 C   0  0
    0.0000    0.0000    0.0000 C   0  0
    0.0000    0.0000    0.0000 O   0  0
  1  2  1  0
  2  3  2  0
  2  4  1  0
  4  5  1  0
  5  6  2  3
  6  7  1  0
  7  8  1  0
  8  9  1  0
  9 10  2  3
 10 11  1  0
 11 12  2  3
 12 13  1  0
 13 14  1  0
 14 15  2  3
 15 16  1  0
 16 17  2  3
 17 18  1  0
 18 19  1  0
 19 20  1  0
 20 21  1  0
 21 22  2  3
 22 23  1  0
 23 24  2  3
 24 25  1  0
 25 26  2  3
 26 21  1  0
 20 27  2  0
 19 28  1  0
 28 22  1  0
 28 29  2  0
 18 30  2  3
 30 14  1  0
 13 31  2  3
 31  9  1  0
  7 32  2  3
 32 33  1  0
 33 34  2  3
 34  5  1  0
 34 35  1  0
  2 36  2  0
M  END
> <smiles>
CS(=O)(NC1=CC(NC2=NC=NC(C3=CC=CC(N(C(C4=C5C=CC=C4)=O)C5=O)=C3)=C2)=CC=C1C)=O

> <facility_reagent_id>
HMSL10196

> <salt_id>
101

> <chemical_name>
KIN001-270

> <inchi>
InChI=1S/C26H21N5O4S/c1-16-10-11-18(13-22(16)30-36(2,34)35)29-24-14-23(27-15-28-24)17-6-5-7-19(12-17)31-25(32)20-8-3-4-9-21(20)26(31)33/h3-15,30H,1-2H3,(H,27,28,29)

> <inchi_key>

> <chebi_id>

> <lincs_id>

> <pubchem_cid>
n/a

> <chembl_id>
n/a

> <molecular_mass>
499.54

> <molecular_formula>
C26H21N5O4S

$$$$

  SciTegic08031211342D

 29 31  0  0  0  0            999 V2000
    0.0000    0.0000    0.0000 N   0  0
    0.0000    0.0000    0.0000 C   0  0
    0.0000    0.0000    0.0000 C   0  0
    0.0000    0.0000    0.0000 C   0  0
    0.0000    0.0000    0.0000 C   0  0
    0.0000    0.0000    0.0000 C   0  0
    0.0000    0.0000    0.0000 C   0  0
    0.0000    0.0000    0.0000 N   0  0
    0.0000    0.0000    0.0000 C   0  0
    0.0000    0.0000    0.0000 C   0  0
    0.0000    0.0000    0.0000 C   0  0
    0.0000    0.0000    0.0000 C   0  0
    0.0000    0.0000    0.0000 C   0  0
    0.0000    0.0000    0.0000 C   0  0
    0.0000    0.0000    0.0000 O   0  0
    0.0000    0.0000    0.0000 C   0  0
    0.0000    0.0000    0.0000 C   0  0
    0.0000    0.0000    0.0000 C   0  0
    0.0000    0.0000    0.0000 C   0  0
    0.0000    0.0000    0.0000 O   0  0
    0.0000    0.0000    0.0000 C   0  0
    0.0000    0.0000    0.0000 C   0  0
    0.0000    0.0000    0.0000 C   0  0
    0.0000    0.0000    0.0000 C   0  0
    0.0000    0.0000    0.0000 N   0  0
    0.0000    0.0000    0.0000 C   0  0
    0.0000    0.0000    0.0000 N   0  0
    0.0000    0.0000    0.0000 H   0  0
    0.0000    0.0000    0.0000 Cl  0  0
  1  2  3  0
  2  3  1  0
  3  4  2  3
  4  5  1  0
  5  6  1  0
  6  7  1  0
  7  8  1  0
  8  9  1  0
  9 10  1  0
 10  5  1  0
  4 11  1  0
 11 12  2  3
 12 13  1  0
 13 14  2  3
 14 15  1  0
 14 16  1  0
 16 17  2  3
 17 18  1  0
 18 19  2  3
 19 13  1  0
 19 20  1  0
 20 21  1  0
 21 22  1  0
 22 23  1  0
 23 24  1  0
 24 22  1  0
 12 25  1  0
 25 26  2  3
 26  3  1  0
 26 27  1  0
 28 29  1  0
M  END
> <smiles>
N#CC1=C(C2CCNCC2)C=C(C3=C(O)C=CC=C3OCC4CC4)N=C1N.[H]Cl

> <facility_reagent_id>
HMSL10197

> <salt_id>
101

> <chemical_name>
KIN001-260; Bayer IKKb inhibitor

> <inchi>
InChI=1S/C21H24N4O2.ClH/c22-11-16-15(14-6-8-24-9-7-14)10-17(25-21(16)23)20-18(26)2-1-3-19(20)27-12-13-4-5-13;/h1-3,10,13-14,24,26H,4-9,12H2,(H2,23,25);1H

> <inchi_key>

> <chebi_id>

> <lincs_id>

> <pubchem_cid>
n/a

> <chembl_id>
n/a

> <molecular_mass>
400.9

> <molecular_formula>
C21H25ClN4O2

$$$$

  SciTegic08031211342D

 30 33  0  0  0  0            999 V2000
    0.0000    0.0000    0.0000 C   0  0
    0.0000    0.0000    0.0000 N   0  0
    0.0000    0.0000    0.0000 C   0  0
    0.0000    0.0000    0.0000 C   0  0
    0.0000    0.0000    0.0000 C   0  0
    0.0000    0.0000    0.0000 C   0  0
    0.0000    0.0000    0.0000 O   0  0
    0.0000    0.0000    0.0000 C   0  0
    0.0000    0.0000    0.0000 C   0  0
    0.0000    0.0000    0.0000 C   0  0
    0.0000    0.0000    0.0000 N   0  0
    0.0000    0.0000    0.0000 C   0  0
    0.0000    0.0000    0.0000 N   0  0
    0.0000    0.0000    0.0000 C   0  0
    0.0000    0.0000    0.0000 N   0  0
    0.0000    0.0000    0.0000 C   0  0
    0.0000    0.0000    0.0000 C   0  0
    0.0000    0.0000    0.0000 C   0  0
    0.0000    0.0000    0.0000 C   0  0
    0.0000    0.0000    0.0000 Br  0  0
    0.0000    0.0000    0.0000 C   0  0
    0.0000    0.0000    0.0000 C   0  0
    0.0000    0.0000    0.0000 F   0  0
    0.0000    0.0000    0.0000 C   0  0
    0.0000    0.0000    0.0000 C   0  0
    0.0000    0.0000    0.0000 C   0  0
    0.0000    0.0000    0.0000 O   0  0
    0.0000    0.0000    0.0000 C   0  0
    0.0000    0.0000    0.0000 C   0  0
    0.0000    0.0000    0.0000 C   0  0
  1  2  1  0
  2  3  1  0
  3  4  1  0
  4  5  1  0
  5  6  1  0
  6  7  1  0
  7  8  1  0
  8  9  2  3
  9 10  1  0
 10 11  2  3
 11 12  1  0
 12 13  2  3
 13 14  1  0
 14 15  1  0
 15 16  1  0
 16 17  2  3
 17 18  1  0
 18 19  2  3
 19 20  1  0
 19 21  1  0
 21 22  2  3
 22 16  1  0
 22 23  1  0
 14 24  2  3
 24 10  1  0
 24 25  1  0
 25 26  2  3
 26  8  1  0
 26 27  1  0
 27 28  1  0
  5 29  1  0
 29 30  1  0
 30  2  1  0
M  END
> <smiles>
CN1CCC(COC2=CC3=NC=NC(NC4=CC=C(Br)C=C4F)=C3C=C2OC)CC1

> <facility_reagent_id>
HMSL10198

> <salt_id>
101

> <chemical_name>
Vandetanib; ZD6474; Zactima; Caprelsa

> <inchi>
InChI=1S/C22H24BrFN4O2/c1-28-7-5-14(6-8-28)12-30-21-11-19-16(10-20(21)29-2)22(26-13-25-19)27-18-4-3-15(23)9-17(18)24/h3-4,9-11,13-14H,5-8,12H2,1-2H3,(H,25,26,27)

> <inchi_key>

> <chebi_id>

> <lincs_id>

> <pubchem_cid>
n/a

> <chembl_id>
n/a

> <molecular_mass>
475.35

> <molecular_formula>
C22H24BrFN4O2

$$$$

  SciTegic08031211342D

 34 37  0  0  0  0            999 V2000
    0.0000    0.0000    0.0000 O   0  0
    0.0000    0.0000    0.0000 C   0  0
    0.0000    0.0000    0.0000 N   0  0
    0.0000    0.0000    0.0000 C   0  0
    0.0000    0.0000    0.0000 C   0  0
    0.0000    0.0000    0.0000 C   0  0
    0.0000    0.0000    0.0000 C   0  0
    0.0000    0.0000    0.0000 N   0  0
    0.0000    0.0000    0.0000 C   0  0
    0.0000    0.0000    0.0000 N   0  0
    0.0000    0.0000    0.0000 C   0  0
    0.0000    0.0000    0.0000 C   0  0
    0.0000    0.0000    0.0000 C   0  0
    0.0000    0.0000    0.0000 F   0  0
    0.0000    0.0000    0.0000 F   0  0
    0.0000    0.0000    0.0000 F   0  0
    0.0000    0.0000    0.0000 C   0  0
    0.0000    0.0000    0.0000 N   0  0
    0.0000    0.0000    0.0000 C   0  0
    0.0000    0.0000    0.0000 C   0  0
    0.0000    0.0000    0.0000 C   0  0
    0.0000    0.0000    0.0000 C   0  0
    0.0000    0.0000    0.0000 C   0  0
    0.0000    0.0000    0.0000 C   0  0
    0.0000    0.0000    0.0000 S   0  0
    0.0000    0.0000    0.0000 O   0  0
    0.0000    0.0000    0.0000 C   0  0
    0.0000    0.0000    0.0000 O   0  0
    0.0000    0.0000    0.0000 C   0  0
    0.0000    0.0000    0.0000 N   0  0
    0.0000    0.0000    0.0000 C   0  0
    0.0000    0.0000    0.0000 C   0  0
    0.0000    0.0000    0.0000 C   0  0
    0.0000    0.0000    0.0000 C   0  0
  1  2  2  0
  2  3  1  0
  3  4  1  0
  4  5  2  3
  5  6  1  0
  6  7  2  3
  7  8  1  0
  8  9  1  0
  9 10  2  3
 10 11  1  0
 11 12  2  3
 12 13  1  0
 13 14  1  0
 13 15  1  0
 13 16  1  0
 12 17  1  0
 17 18  1  0
 18 19  1  0
 19 20  1  0
 20 21  2  3
 21 22  1  0
 22 23  2  3
 23 24  1  0
 24 25  1  0
 25 26  2  0
 25 27  1  0
 25 28  2  0
 24 29  2  3
 29 20  1  0
 17 30  2  3
 30  9  1  0
  7 31  1  0
 31 32  2  3
 32  4  1  0
  5 33  1  0
 33 34  1  0
 34  2  1  0
M  END
> <smiles>
O=C1NC2=C(C=C(NC3=NC=C(C(F)(F)F)C(NCC4=CC=CC(S(=O)(C)=O)=C4)=N3)C=C2)CC1

> <facility_reagent_id>
HMSL10199

> <salt_id>
101

> <chemical_name>
PF 573228

> <inchi>
InChI=1S/C22H20F3N5O3S/c1-34(32,33)16-4-2-3-13(9-16)11-26-20-17(22(23,24)25)12-27-21(30-20)28-15-6-7-18-14(10-15)5-8-19(31)29-18/h2-4,6-7,9-10,12H,5,8,11H2,1H3,(H,29,31)(H2,26,27,28,30)

> <inchi_key>

> <chebi_id>

> <lincs_id>

> <pubchem_cid>
n/a

> <chembl_id>
n/a

> <molecular_mass>
491.49

> <molecular_formula>
C22H20F3N5O3S

$$$$

  SciTegic08031211342D

 37 41  0  0  0  0            999 V2000
    0.0000    0.0000    0.0000 N   0  0
    0.0000    0.0000    0.0000 C   0  0
    0.0000    0.0000    0.0000 C   0  0
    0.0000    0.0000    0.0000 N   0  0
    0.0000    0.0000    0.0000 C   0  0
    0.0000    0.0000    0.0000 C   0  0
    0.0000    0.0000    0.0000 N   0  0
    0.0000    0.0000    0.0000 C   0  0
    0.0000    0.0000    0.0000 N   0  0
    0.0000    0.0000    0.0000 C   0  0
    0.0000    0.0000    0.0000 C   0  0
    0.0000    0.0000    0.0000 C   0  0
    0.0000    0.0000    0.0000 N   0  0
    0.0000    0.0000    0.0000 C   0  0
    0.0000    0.0000    0.0000 C   0  0
    0.0000    0.0000    0.0000 C   0  0
    0.0000    0.0000    0.0000 N   0  0
    0.0000    0.0000    0.0000 C   0  0
    0.0000    0.0000    0.0000 C   0  0
    0.0000    0.0000    0.0000 C   0  0
    0.0000    0.0000    0.0000 C   0  0
    0.0000    0.0000    0.0000 C   0  0
    0.0000    0.0000    0.0000 C   0  0
    0.0000    0.0000    0.0000 C   0  0
    0.0000    0.0000    0.0000 C   0  0
    0.0000    0.0000    0.0000 O   0  0
    0.0000    0.0000    0.0000 N   0  0
    0.0000    0.0000    0.0000 C   0  0
    0.0000    0.0000    0.0000 C   0  0
    0.0000    0.0000    0.0000 C   0  0
    0.0000    0.0000    0.0000 C   0  0
    0.0000    0.0000    0.0000 C   0  0
    0.0000    0.0000    0.0000 C   0  0
    0.0000    0.0000    0.0000 C   0  0
    0.0000    0.0000    0.0000 F   0  0
    0.0000    0.0000    0.0000 F   0  0
    0.0000    0.0000    0.0000 F   0  0
  1  2  1  0
  1  3  1  0
  3  4  2  3
  3  5  1  0
  5  6  1  0
  6  7  2  3
  7  1  1  0
  5  8  2  3
  8  9  1  0
  9 10  2  3
 10  4  1  0
 10 11  1  0
 11 12  2  3
 12 13  1  0
 13 14  2  3
 11 15  1  0
 15 16  2  3
 16 14  1  0
  8 17  1  0
 17 18  1  0
 18 19  1  0
 19 20  2  3
 20 21  1  0
 21 22  2  3
 22 23  1  0
 23 18  2  3
 23 24  1  0
 20 25  1  0
 25 26  2  0
 25 27  1  0
 27 28  1  0
 28 29  1  0
 29 30  2  3
 30 31  1  0
 31 32  2  3
 32 33  1  0
 33 28  2  3
 30 34  1  0
 34 35  1  0
 34 36  1  0
 34 37  1  0
M  END
> <smiles>
N1(C)C(=N2)C(C=N1)=C(N=C2C(=CN=C1)C=C1)NC1C=C(C=CC=1C)C(=O)NC1C=C(C=CC=1)C(F)(F)F

> <facility_reagent_id>
HMSL10200

> <salt_id>
101

> <chemical_name>
NVP-BHG712

> <inchi>
InChI=1S/C26H20F3N7O/c1-15-8-9-16(25(37)32-19-7-3-6-18(12-19)26(27,28)29)11-21(15)33-23-20-14-31-36(2)24(20)35-22(34-23)17-5-4-10-30-13-17/h3-14H,1-2H3,(H,32,37)(H,33,34,35)

> <inchi_key>

> <chebi_id>

> <lincs_id>

> <pubchem_cid>
n/a

> <chembl_id>
n/a

> <molecular_mass>
503.48

> <molecular_formula>
C26H20F3N7O

$$$$

  SciTegic08031211342D

 36 41  0  0  0  0            999 V2000
    0.0000    0.0000    0.0000 O   0  0
    0.0000    0.0000    0.0000 C   0  0
    0.0000    0.0000    0.0000 C   0  0
    0.0000    0.0000    0.0000 C   0  0
    0.0000    0.0000    0.0000 N   0  0
    0.0000    0.0000    0.0000 C   0  0
    0.0000    0.0000    0.0000 C   0  0
    0.0000    0.0000    0.0000 C   0  0
    0.0000    0.0000    0.0000 C   0  0
    0.0000    0.0000    0.0000 C   0  0
    0.0000    0.0000    0.0000 C   0  0
    0.0000    0.0000    0.0000 N   0  0
    0.0000    0.0000    0.0000 C   0  0
    0.0000    0.0000    0.0000 C   0  0
    0.0000    0.0000    0.0000 C   0  0
    0.0000    0.0000    0.0000 C   0  0
    0.0000    0.0000    0.0000 C   0  0
    0.0000    0.0000    0.0000 C   0  0
    0.0000    0.0000    0.0000 C   0  0
    0.0000    0.0000    0.0000 C   0  0
    0.0000    0.0000    0.0000 C   0  0
    0.0000    0.0000    0.0000 C   0  0
    0.0000    0.0000    0.0000 C   0  0
    0.0000    0.0000    0.0000 N   0  0
    0.0000    0.0000    0.0000 C   0  0
    0.0000    0.0000    0.0000 C   0  0
    0.0000    0.0000    0.0000 C   0  0
    0.0000    0.0000    0.0000 N   0  0
    0.0000    0.0000    0.0000 C   0  0
    0.0000    0.0000    0.0000 C   0  0
    0.0000    0.0000    0.0000 O   0  0
    0.0000    0.0000    0.0000 C   0  0
    0.0000    0.0000    0.0000 C   0  0
    0.0000    0.0000    0.0000 C   0  0
    0.0000    0.0000    0.0000 C   0  0
    0.0000    0.0000    0.0000 C   0  0
  1  2  2  0
  2  3  1  0
  3  4  2  3
  4  5  1  0
  5  6  1  0
  6  7  2  3
  7  3  1  0
  7  8  1  0
  8  9  2  3
  9 10  1  0
 10 11  1  0
 11 12  3  0
 10 13  2  3
 13  6  1  0
  4 14  1  0
 14 15  1  0
 14 16  1  0
 14 17  1  0
 17 18  2  3
 18  2  1  0
 18 19  1  0
 19 20  2  3
 20 21  1  0
 21 22  1  0
 20 23  1  0
 23 24  1  0
 24 25  1  0
 25 26  1  0
 26 27  1  0
 27 28  1  0
 28 29  1  0
 29 30  1  0
 30 31  1  0
 31 32  1  0
 32 33  1  0
 33 28  1  0
 27 34  1  0
 34 35  1  0
 35 24  1  0
 23 36  2  3
 36 17  1  0
M  END
> <smiles>
O=C1C2=C(NC3=C2C=CC(C#N)=C3)C(C)(C)C4=C1C=C(CC)C(N5CCC(N6CCOCC6)CC5)=C4

> <facility_reagent_id>
HMSL10201

> <salt_id>
101

> <chemical_name>
CH5424802

> <inchi>
InChI=1S/C30H34N4O2/c1-4-20-16-23-24(17-26(20)34-9-7-21(8-10-34)33-11-13-36-14-12-33)30(2,3)29-27(28(23)35)22-6-5-19(18-31)15-25(22)32-29/h5-6,15-17,21,32H,4,7-14H2,1-3H3

> <inchi_key>

> <chebi_id>

> <lincs_id>

> <pubchem_cid>
n/a

> <chembl_id>
n/a

> <molecular_mass>
482.62

> <molecular_formula>
C30H34N4O2

$$$$

  SciTegic08031211342D

 30 34  0  0  0  0            999 V2000
    0.0000    0.0000    0.0000 O   0  0
    0.0000    0.0000    0.0000 C   0  0
    0.0000    0.0000    0.0000 N   0  0
    0.0000    0.0000    0.0000 C   0  0
    0.0000    0.0000    0.0000 C   0  0
    0.0000    0.0000    0.0000 C   0  0
    0.0000    0.0000    0.0000 C   0  0
    0.0000    0.0000    0.0000 C   0  0
    0.0000    0.0000    0.0000 N   0  0
    0.0000    0.0000    0.0000 C   0  0
    0.0000    0.0000    0.0000 C   0  0
    0.0000    0.0000    0.0000 C   0  0
    0.0000    0.0000    0.0000 C   0  0
    0.0000    0.0000    0.0000 C   0  0
    0.0000    0.0000    0.0000 O   0  0
    0.0000    0.0000    0.0000 C   0  0
    0.0000    0.0000    0.0000 C   0  0
    0.0000    0.0000    0.0000 O   0  0
    0.0000    0.0000    0.0000 C   0  0
    0.0000    0.0000    0.0000 C   0  0
    0.0000    0.0000    0.0000 C   0  0
    0.0000    0.0000    0.0000 C   0  0
    0.0000    0.0000    0.0000 N   0  0
    0.0000    0.0000    0.0000 C   0  0
    0.0000    0.0000    0.0000 C   0  0
    0.0000    0.0000    0.0000 C   0  0
    0.0000    0.0000    0.0000 C   0  0
    0.0000    0.0000    0.0000 N   0  0
    0.0000    0.0000    0.0000 C   0  0
    0.0000    0.0000    0.0000 C   0  0
  1  2  2  0
  2  3  1  0
  2  4  1  0
  4  5  2  3
  5  6  1  0
  6  7  2  3
  7  8  1  0
  8  9  2  3
  9 10  1  0
 10 11  1  0
 11 12  2  3
 12 13  1  0
 13 14  2  3
 14 15  1  0
 15 16  1  0
 16 17  1  0
 17 18  1  0
 14 19  1  0
 19 18  1  0
 19 20  2  3
 20 11  1  0
 10 21  2  3
 21 22  1  0
 22 23  2  3
 23 24  1  0
 24 25  2  3
 25 26  1  0
 26 27  2  3
 27 22  1  0
 21 28  1  0
 28  8  1  0
  7 29  1  0
 29 30  2  3
 30  4  1  0
M  END
> <smiles>
O=C(N)C1=CC=C(C2=NC(C3=CC=C(OCCO4)C4=C3)=C(C5=NC=CC=C5)N2)C=C1

> <facility_reagent_id>
HMSL10202

> <salt_id>
101

> <chemical_name>
D 4476

> <inchi>
InChI=1S/C23H18N4O3/c24-22(28)14-4-6-15(7-5-14)23-26-20(21(27-23)17-3-1-2-10-25-17)16-8-9-18-19(13-16)30-12-11-29-18/h1-10,13H,11-12H2,(H2,24,28)(H,26,27)

> <inchi_key>

> <chebi_id>

> <lincs_id>

> <pubchem_cid>
n/a

> <chembl_id>
n/a

> <molecular_mass>
398.41

> <molecular_formula>
C23H18N4O3

$$$$

  SciTegic08031211342D

 26 28  0  0  1  0            999 V2000
    0.0000    0.0000    0.0000 O   0  0
    0.0000    0.0000    0.0000 C   0  0
    0.0000    0.0000    0.0000 N   0  0
    0.0000    0.0000    0.0000 C   0  0  2  0  0  0
    0.0000    0.0000    0.0000 C   0  0
    0.0000    0.0000    0.0000 N   0  0
    0.0000    0.0000    0.0000 O   0  0
    0.0000    0.0000    0.0000 C   0  0
    0.0000    0.0000    0.0000 C   0  0
    0.0000    0.0000    0.0000 C   0  0
    0.0000    0.0000    0.0000 N   0  0
    0.0000    0.0000    0.0000 C   0  0
    0.0000    0.0000    0.0000 N   0  0
    0.0000    0.0000    0.0000 C   0  0
    0.0000    0.0000    0.0000 C   0  0
    0.0000    0.0000    0.0000 C   0  0
    0.0000    0.0000    0.0000 C   0  0
    0.0000    0.0000    0.0000 C   0  0
    0.0000    0.0000    0.0000 S   0  0
    0.0000    0.0000    0.0000 C   0  0
    0.0000    0.0000    0.0000 C   0  0
    0.0000    0.0000    0.0000 C   0  0
    0.0000    0.0000    0.0000 C   0  0
    0.0000    0.0000    0.0000 C   0  0
    0.0000    0.0000    0.0000 N   0  0
    0.0000    0.0000    0.0000 S   0  0
  1  2  2  0
  2  3  1  0
  3  4  1  0
  4  5  1  0
  5  6  1  6
  5  7  2  0
  4  8  1  1
  8  9  1  0
  9 10  1  0
 10  3  1  0
  2 11  1  0
 11 12  1  0
 12 13  2  3
 13 14  1  0
 14 15  1  0
 14 16  2  3
 16 17  1  0
 17 18  2  3
 18 19  1  0
 19 20  1  0
 20 21  1  0
 21 22  1  0
 21 23  1  0
 21 24  1  0
 20 25  2  3
 25 17  1  0
 16 26  1  0
 26 12  1  0
M  END
> <smiles>
O=C(N1[C@H]([C@](N)=O)CCC1)NC2=NC(C)=C(C3=CSC(C(C)(C)C)=N3)S2

> <facility_reagent_id>
HMSL10203

> <salt_id>
101

> <chemical_name>
A66

> <inchi>
InChI=1S/C17H23N5O2S2/c1-9-12(10-8-25-14(20-10)17(2,3)4)26-15(19-9)21-16(24)22-7-5-6-11(22)13(18)23/h8,11H,5-7H2,1-4H3,(H2,18,23)(H,19,21,24)/t11-/m0/s1

> <inchi_key>

> <chebi_id>

> <lincs_id>

> <pubchem_cid>
n/a

> <chembl_id>
n/a

> <molecular_mass>
393.53

> <molecular_formula>
C17H23N5O2S2

$$$$

  SciTegic08031211342D

 31 35  0  0  1  0            999 V2000
    0.0000    0.0000    0.0000 O   0  0
    0.0000    0.0000    0.0000 C   0  0
    0.0000    0.0000    0.0000 N   0  0
    0.0000    0.0000    0.0000 C   0  0
    0.0000    0.0000    0.0000 C   0  0
    0.0000    0.0000    0.0000 C   0  0
    0.0000    0.0000    0.0000 C   0  0
    0.0000    0.0000    0.0000 C   0  0
    0.0000    0.0000    0.0000 C   0  0
    0.0000    0.0000    0.0000 C   0  0
    0.0000    0.0000    0.0000 C   0  0  1  0  0  0
    0.0000    0.0000    0.0000 N   0  0
    0.0000    0.0000    0.0000 C   0  0
    0.0000    0.0000    0.0000 N   0  0
    0.0000    0.0000    0.0000 C   0  0
    0.0000    0.0000    0.0000 N   0  0
    0.0000    0.0000    0.0000 C   0  0
    0.0000    0.0000    0.0000 C   0  0
    0.0000    0.0000    0.0000 N   0  0
    0.0000    0.0000    0.0000 C   0  0
    0.0000    0.0000    0.0000 N   0  0
    0.0000    0.0000    0.0000 C   0  0
    0.0000    0.0000    0.0000 C   0  0
    0.0000    0.0000    0.0000 N   0  0
    0.0000    0.0000    0.0000 C   0  0
    0.0000    0.0000    0.0000 C   0  0
    0.0000    0.0000    0.0000 C   0  0
    0.0000    0.0000    0.0000 F   0  0
    0.0000    0.0000    0.0000 C   0  0
    0.0000    0.0000    0.0000 C   0  0
    0.0000    0.0000    0.0000 C   0  0
  1  2  2  0
  2  3  1  0
  3  4  1  0
  4  5  2  3
  5  6  1  0
  6  7  2  3
  7  8  1  0
  8  9  2  3
  9  4  1  0
  3 10  1  0
 10 11  1  0
 11 12  1  1
 12 13  1  0
 13 14  2  3
 14 15  1  0
 15 16  2  3
 16 17  1  0
 17 18  2  3
 18 13  1  0
 18 19  1  0
 19 20  2  3
 20 21  1  0
 21 17  1  0
 11 22  1  0
 22 23  1  0
 10 24  2  3
 24 25  1  0
 25 26  2  3
 26  2  1  0
 26 27  1  0
 27 28  1  0
 27 29  2  3
 29 30  1  0
 30 31  2  3
 31 25  1  0
M  END
> <smiles>
O=C1N(C2=CC=CC=C2)C([C@@H](NC3=NC=NC4=C3N=CN4)CC)=NC5=C1C(F)=CC=C5

> <facility_reagent_id>
HMSL10204

> <salt_id>
101

> <chemical_name>
CAL-101

> <inchi>
InChI=1S/C22H18FN7O/c1-2-15(28-20-18-19(25-11-24-18)26-12-27-20)21-29-16-10-6-9-14(23)17(16)22(31)30(21)13-7-4-3-5-8-13/h3-12,15H,2H2,1H3,(H2,24,25,26,27,28)/t15-/m0/s1

> <inchi_key>

> <chebi_id>

> <lincs_id>

> <pubchem_cid>
n/a

> <chembl_id>
n/a

> <molecular_mass>
415.42

> <molecular_formula>
C22H18FN7O

$$$$

  SciTegic08031211342D

 23 26  0  0  0  0            999 V2000
    0.0000    0.0000    0.0000 N   0  0
    0.0000    0.0000    0.0000 C   0  0
    0.0000    0.0000    0.0000 C   0  0
    0.0000    0.0000    0.0000 C   0  0
    0.0000    0.0000    0.0000 N   0  0
    0.0000    0.0000    0.0000 C   0  0
    0.0000    0.0000    0.0000 C   0  0
    0.0000    0.0000    0.0000 C   0  0
    0.0000    0.0000    0.0000 N   0  0
    0.0000    0.0000    0.0000 C   0  0
    0.0000    0.0000    0.0000 C   0  0
    0.0000    0.0000    0.0000 C   0  0
    0.0000    0.0000    0.0000 C   0  0
    0.0000    0.0000    0.0000 C   0  0
    0.0000    0.0000    0.0000 O   0  0
    0.0000    0.0000    0.0000 C   0  0
    0.0000    0.0000    0.0000 N   0  0
    0.0000    0.0000    0.0000 N   0  0
    0.0000    0.0000    0.0000 C   0  0
    0.0000    0.0000    0.0000 C   0  0
    0.0000    0.0000    0.0000 N   0  0
    0.0000    0.0000    0.0000 C   0  0
    0.0000    0.0000    0.0000 N   0  0
  1  2  1  0
  2  3  2  3
  3  4  1  0
  4  5  1  0
  5  6  1  0
  6  7  1  0
  6  8  1  0
  5  9  1  0
  9 10  2  3
 10  3  1  0
 10 11  1  0
 11 12  2  3
 12 13  1  0
 13 14  2  3
 14 15  1  0
 15 16  1  0
 16 17  1  0
 16 18  2  3
 14 19  1  0
 19 18  1  0
 19 20  2  3
 20 11  1  0
  4 21  2  3
 21 22  1  0
 22 23  2  3
 23  2  1  0
M  END
> <smiles>
NC1=C2C(N(C(C)C)N=C2C3=CC=C(OC(N)=N4)C4=C3)=NC=N1

> <facility_reagent_id>
HMSL10205

> <salt_id>
101

> <chemical_name>
INK-128

> <inchi>
InChI=1S/C15H15N7O/c1-7(2)22-14-11(13(16)18-6-19-14)12(21-22)8-3-4-10-9(5-8)20-15(17)23-10/h3-7H,1-2H3,(H2,17,20)(H2,16,18,19)

> <inchi_key>

> <chebi_id>

> <lincs_id>

> <pubchem_cid>
n/a

> <chembl_id>
n/a

> <molecular_mass>
309.33

> <molecular_formula>
C15H15N7O

$$$$

  SciTegic08031211342D

 37 41  0  0  0  0            999 V2000
    0.0000    0.0000    0.0000 F   0  0
    0.0000    0.0000    0.0000 C   0  0
    0.0000    0.0000    0.0000 C   0  0
    0.0000    0.0000    0.0000 C   0  0
    0.0000    0.0000    0.0000 C   0  0
    0.0000    0.0000    0.0000 C   0  0
    0.0000    0.0000    0.0000 N   0  0
    0.0000    0.0000    0.0000 C   0  0
    0.0000    0.0000    0.0000 N   0  0
    0.0000    0.0000    0.0000 C   0  0
    0.0000    0.0000    0.0000 C   0  0
    0.0000    0.0000    0.0000 C   0  0
    0.0000    0.0000    0.0000 O   0  0
    0.0000    0.0000    0.0000 C   0  0
    0.0000    0.0000    0.0000 C   0  0
    0.0000    0.0000    0.0000 C   0  0
    0.0000    0.0000    0.0000 C   0  0
    0.0000    0.0000    0.0000 N   0  0
    0.0000    0.0000    0.0000 C   0  0
    0.0000    0.0000    0.0000 C   0  0
    0.0000    0.0000    0.0000 C   0  0
    0.0000    0.0000    0.0000 F   0  0
    0.0000    0.0000    0.0000 F   0  0
    0.0000    0.0000    0.0000 F   0  0
    0.0000    0.0000    0.0000 N   0  0
    0.0000    0.0000    0.0000 N   0  0
    0.0000    0.0000    0.0000 C   0  0
    0.0000    0.0000    0.0000 C   0  0
    0.0000    0.0000    0.0000 C   0  0
    0.0000    0.0000    0.0000 C   0  0
    0.0000    0.0000    0.0000 C   0  0
    0.0000    0.0000    0.0000 N   0  0
    0.0000    0.0000    0.0000 C   0  0
    0.0000    0.0000    0.0000 C   0  0
    0.0000    0.0000    0.0000 C   0  0
    0.0000    0.0000    0.0000 F   0  0
    0.0000    0.0000    0.0000 F   0  0
  1  2  1  0
  2  3  1  0
  3  4  2  3
  4  5  1  0
  5  6  2  3
  6  7  1  0
  7  8  1  0
  8  9  2  3
  9 10  1  0
 10 11  2  3
 11 12  1  0
 12 13  1  0
 13 14  1  0
 14 15  2  3
 15 16  1  0
 16 17  1  0
 17 18  2  3
 18 19  1  0
 19 20  2  3
 20 21  1  0
 21 22  1  0
 21 23  1  0
 21 24  1  0
 20 25  1  0
 25 17  1  0
 16 26  2  3
 26 27  1  0
 27 28  2  3
 28 14  1  0
 12 29  2  3
 29 30  1  0
 30 31  2  3
 31 10  1  0
 31 32  1  0
 32  8  1  0
 32 33  1  0
  6 34  1  0
 34 35  2  3
 35  3  1  0
  2 36  1  0
  2 37  1  0
M  END
> <smiles>
FC(C1=CC=C(NC2=NC3=CC(OC4=CC(C5=NC=C(C(F)(F)F)N5)=NC=C4)=CC=C3N2C)C=C1)(F)F

> <facility_reagent_id>
HMSL10206

> <salt_id>
101

> <chemical_name>
RAF 265

> <inchi>
InChI=1S/C24H16F6N6O/c1-36-19-7-6-15(10-17(19)34-22(36)33-14-4-2-13(3-5-14)23(25,26)27)37-16-8-9-31-18(11-16)21-32-12-20(35-21)24(28,29)30/h2-12H,1H3,(H,32,35)(H,33,34)

> <inchi_key>

> <chebi_id>

> <lincs_id>

> <pubchem_cid>
n/a

> <chembl_id>
n/a

> <molecular_mass>
518.41

> <molecular_formula>
C24H16F6N6O

$$$$

  SciTegic08031211342D

 33 36  0  0  0  0            999 V2000
    0.0000    0.0000    0.0000 O   0  0
    0.0000    0.0000    0.0000 C   0  0
    0.0000    0.0000    0.0000 N   0  0
    0.0000    0.0000    0.0000 C   0  0
    0.0000    0.0000    0.0000 C   0  0
    0.0000    0.0000    0.0000 C   0  0
    0.0000    0.0000    0.0000 C   0  0
    0.0000    0.0000    0.0000 C   0  0
    0.0000    0.0000    0.0000 C   0  0
    0.0000    0.0000    0.0000 C   0  0
    0.0000    0.0000    0.0000 N   0  0
    0.0000    0.0000    0.0000 C   0  0
    0.0000    0.0000    0.0000 N   0  0
    0.0000    0.0000    0.0000 C   0  0
    0.0000    0.0000    0.0000 N   0  0
    0.0000    0.0000    0.0000 C   0  0
    0.0000    0.0000    0.0000 C   0  0
    0.0000    0.0000    0.0000 C   0  0
    0.0000    0.0000    0.0000 C   0  0
    0.0000    0.0000    0.0000 N   0  0
    0.0000    0.0000    0.0000 C   0  0
    0.0000    0.0000    0.0000 C   0  0
    0.0000    0.0000    0.0000 O   0  0
    0.0000    0.0000    0.0000 C   0  0
    0.0000    0.0000    0.0000 C   0  0
    0.0000    0.0000    0.0000 C   0  0
    0.0000    0.0000    0.0000 C   0  0
    0.0000    0.0000    0.0000 O   0  0
    0.0000    0.0000    0.0000 C   0  0
    0.0000    0.0000    0.0000 N   0  0
    0.0000    0.0000    0.0000 C   0  0
    0.0000    0.0000    0.0000 C   0  0
    0.0000    0.0000    0.0000 Cl  0  0
  1  2  2  0
  2  3  1  0
  3  4  1  0
  2  5  1  0
  5  6  2  3
  6  7  1  0
  7  8  2  3
  8  9  1  0
  9 10  2  3
 10  5  1  0
 10 11  1  0
 11 12  1  0
 12 13  2  3
 13 14  1  0
 14 15  1  0
 15 16  1  0
 16 17  2  3
 17 18  1  0
 18 19  2  3
 19 20  1  0
 20 21  1  0
 21 22  1  0
 22 23  1  0
 23 24  1  0
 24 25  1  0
 25 20  1  0
 19 26  1  0
 26 27  2  3
 27 16  1  0
 27 28  1  0
 28 29  1  0
 14 30  2  3
 30 31  1  0
 31 32  2  3
 32 12  1  0
 32 33  1  0
M  END
> <smiles>
O=C(NC)C1=CC=CC=C1NC2=NC(NC3=CC=C(N4CCOCC4)C=C3OC)=NC=C2Cl

> <facility_reagent_id>
HMSL10207

> <salt_id>
101

> <chemical_name>
NVP-TAE226; CHIR-265

> <inchi>
InChI=1S/C23H25ClN6O3/c1-25-22(31)16-5-3-4-6-18(16)27-21-17(24)14-26-23(29-21)28-19-8-7-15(13-20(19)32-2)30-9-11-33-12-10-30/h3-8,13-14H,9-12H2,1-2H3,(H,25,31)(H2,26,27,28,29)

> <inchi_key>

> <chebi_id>

> <lincs_id>

> <pubchem_cid>
n/a

> <chembl_id>
n/a

> <molecular_mass>
468.94

> <molecular_formula>
C23H25ClN6O3

$$$$

  SciTegic08031211342D

 24 27  0  0  0  0            999 V2000
    0.0000    0.0000    0.0000 O   0  0
    0.0000    0.0000    0.0000 C   0  0
    0.0000    0.0000    0.0000 C   0  0
    0.0000    0.0000    0.0000 C   0  0
    0.0000    0.0000    0.0000 C   0  0
    0.0000    0.0000    0.0000 C   0  0
    0.0000    0.0000    0.0000 C   0  0
    0.0000    0.0000    0.0000 C   0  0
    0.0000    0.0000    0.0000 C   0  0
    0.0000    0.0000    0.0000 C   0  0
    0.0000    0.0000    0.0000 C   0  0
    0.0000    0.0000    0.0000 C   0  0
    0.0000    0.0000    0.0000 N   0  0
    0.0000    0.0000    0.0000 C   0  0
    0.0000    0.0000    0.0000 C   0  0
    0.0000    0.0000    0.0000 C   0  0
    0.0000    0.0000    0.0000 N   0  0
    0.0000    0.0000    0.0000 C   0  0
    0.0000    0.0000    0.0000 C   0  0
    0.0000    0.0000    0.0000 S   0  0
    0.0000    0.0000    0.0000 C   0  0
    0.0000    0.0000    0.0000 C   0  0
    0.0000    0.0000    0.0000 C   0  0
    0.0000    0.0000    0.0000 C   0  0
  1  2  2  0
  2  3  1  0
  3  4  2  3
  4  5  1  0
  5  6  2  3
  6  7  1  0
  7  8  2  3
  4  9  1  0
  9  8  1  0
  9 10  2  3
 10 11  1  0
 11 12  2  3
 12  3  1  0
  2 13  1  0
 13 14  1  0
 14 15  2  3
 15 16  1  0
 16 17  3  0
 15 18  1  0
 18 19  2  3
 19 20  1  0
 20 14  1  0
 19 21  1  0
 21 22  1  0
 22 23  1  0
 23 24  1  0
 24 18  1  0
M  END
> <smiles>
O=C(C1=C(C=CC=C2)C2=CC=C1)NC3=C(C#N)C4=C(S3)CCCC4

> <facility_reagent_id>
HMSL10208

> <salt_id>
101

> <chemical_name>
JNK-IN-5A; TCS JNK 5a; KIN001-188

> <inchi>
InChI=1S/C20H16N2OS/c21-12-17-15-9-3-4-11-18(15)24-20(17)22-19(23)16-10-5-7-13-6-1-2-8-14(13)16/h1-2,5-8,10H,3-4,9,11H2,(H,22,23)

> <inchi_key>

> <chebi_id>

> <lincs_id>

> <pubchem_cid>
n/a

> <chembl_id>
n/a

> <molecular_mass>
332.42

> <molecular_formula>
C20H16N2OS

$$$$

  SciTegic08031211342D

 34 38  0  0  1  0            999 V2000
    0.0000    0.0000    0.0000 O   0  0
    0.0000    0.0000    0.0000 C   0  0
    0.0000    0.0000    0.0000 C   0  0  2  0  0  0
    0.0000    0.0000    0.0000 C   0  0
    0.0000    0.0000    0.0000 N   0  0
    0.0000    0.0000    0.0000 C   0  0
    0.0000    0.0000    0.0000 N   0  0
    0.0000    0.0000    0.0000 C   0  0
    0.0000    0.0000    0.0000 N   0  0
    0.0000    0.0000    0.0000 C   0  0
    0.0000    0.0000    0.0000 N   0  0
    0.0000    0.0000    0.0000 C   0  0
    0.0000    0.0000    0.0000 C   0  0
    0.0000    0.0000    0.0000 C   0  0
    0.0000    0.0000    0.0000 C   0  0
    0.0000    0.0000    0.0000 C   0  0
    0.0000    0.0000    0.0000 C   0  0
    0.0000    0.0000    0.0000 C   0  0
    0.0000    0.0000    0.0000 C   0  0
    0.0000    0.0000    0.0000 N   0  0
    0.0000    0.0000    0.0000 N   0  0
    0.0000    0.0000    0.0000 N   0  0
    0.0000    0.0000    0.0000 C   0  0
    0.0000    0.0000    0.0000 C   0  0  2  0  0  0
    0.0000    0.0000    0.0000 C   0  0
    0.0000    0.0000    0.0000 C   0  0
    0.0000    0.0000    0.0000 C   0  0
    0.0000    0.0000    0.0000 N   0  0
    0.0000    0.0000    0.0000 C   0  0
    0.0000    0.0000    0.0000 C   0  0
    0.0000    0.0000    0.0000 C   0  0
    0.0000    0.0000    0.0000 C   0  0
    0.0000    0.0000    0.0000 C   0  0
    0.0000    0.0000    0.0000 C   0  0
  1  2  2  0
  2  3  1  0
  3  4  1  1
  4  5  1  0
  5  6  1  0
  6  7  2  3
  7  8  1  0
  8  9  1  0
  9 10  1  0
  8 11  2  3
 11 12  1  0
 12 13  1  0
 13 14  2  3
 14 15  1  0
 15 16  2  3
 16 17  1  0
 17 18  2  3
 18 13  1  0
 16 19  1  0
 19 20  1  0
 19 21  2  3
 21 22  1  0
 22 15  1  0
 12 23  2  3
 23  6  1  0
  5 24  1  0
 24 25  1  1
 24 26  1  0
 26 27  1  0
 27  3  1  0
  2 28  1  6
 28 29  1  0
 29 30  1  0
 30 31  1  0
 31 32  1  0
 32 33  1  0
 33 34  1  0
 34 29  1  0
M  END
> <smiles>
O=[C@]([C@@H]1CN(C2=NC(NC)=NC(C3=CC4=C(C=C3)C(N)=NN4)=C2)[C@H](C)CC1)NC5CCCCC5

> <facility_reagent_id>
HMSL10221

> <salt_id>
101

> <chemical_name>
GSK2334470

> <inchi>
InChI=1S/C25H34N8O/c1-15-8-9-17(24(34)28-18-6-4-3-5-7-18)14-33(15)22-13-20(29-25(27-2)30-22)16-10-11-19-21(12-16)31-32-23(19)26/h10-13,15,17-18H,3-9,14H2,1-2H3,(H,28,34)(H3,26,31,32)(H,27,29,30)/t15-,
17+/m1/s1

> <inchi_key>

> <chebi_id>

> <lincs_id>

> <pubchem_cid>
n/a

> <chembl_id>
n/a

> <molecular_mass>
462.59

> <molecular_formula>
C25H34N8O

$$$$

  SciTegic08031211342D

 33 36  0  0  0  0            999 V2000
    0.0000    0.0000    0.0000 O   0  0
    0.0000    0.0000    0.0000 C   0  0
    0.0000    0.0000    0.0000 N   0  0
    0.0000    0.0000    0.0000 C   0  0
    0.0000    0.0000    0.0000 C   0  0
    0.0000    0.0000    0.0000 C   0  0
    0.0000    0.0000    0.0000 C   0  0
    0.0000    0.0000    0.0000 N   0  0
    0.0000    0.0000    0.0000 C   0  0
    0.0000    0.0000    0.0000 C   0  0
    0.0000    0.0000    0.0000 C   0  0
    0.0000    0.0000    0.0000 C   0  0
    0.0000    0.0000    0.0000 F   0  0
    0.0000    0.0000    0.0000 C   0  0
    0.0000    0.0000    0.0000 Cl  0  0
    0.0000    0.0000    0.0000 C   0  0
    0.0000    0.0000    0.0000 N   0  0
    0.0000    0.0000    0.0000 C   0  0
    0.0000    0.0000    0.0000 N   0  0
    0.0000    0.0000    0.0000 C   0  0
    0.0000    0.0000    0.0000 C   0  0
    0.0000    0.0000    0.0000 C   0  0
    0.0000    0.0000    0.0000 O   0  0
    0.0000    0.0000    0.0000 C   0  0
    0.0000    0.0000    0.0000 C   0  0
    0.0000    0.0000    0.0000 C   0  0
    0.0000    0.0000    0.0000 C   0  0
    0.0000    0.0000    0.0000 N   0  0
    0.0000    0.0000    0.0000 C   0  0
    0.0000    0.0000    0.0000 C   0  0
    0.0000    0.0000    0.0000 C   0  0
    0.0000    0.0000    0.0000 C   0  0
    0.0000    0.0000    0.0000 C   0  0
  1  2  2  0
  2  3  1  0
  3  4  1  0
  4  5  2  3
  5  6  1  0
  6  7  2  3
  7  8  1  0
  8  9  1  0
  9 10  2  3
 10 11  1  0
 11 12  2  3
 12 13  1  0
 12 14  1  0
 14 15  1  0
 14 16  2  3
 16  9  1  0
  7 17  1  0
 17 18  2  3
 18 19  1  0
 19 20  2  3
 20  6  1  0
 20 21  1  0
 21 22  2  3
 22  4  1  0
 22 23  1  0
 23 24  1  0
  2 25  1  0
 25 26  2  3
 26 27  1  0
 27 28  1  0
 28 29  1  0
 29 30  1  0
 30 31  1  0
 31 32  1  0
 32 33  1  0
 33 28  1  0
M  END
> <smiles>
O=C(NC1=CC2=C(NC3=CC=C(F)C(Cl)=C3)N=CN=C2C=C1OC)/C=C/CN4CCCCC4

> <facility_reagent_id>
HMSL10222

> <salt_id>
101

> <chemical_name>
PF-00299804; Dacomitinib

> <inchi>
InChI=1S/C24H25ClFN5O2/c1-33-22-14-20-17(24(28-15-27-20)29-16-7-8-19(26)18(25)12-16)13-21(22)30-23(32)6-5-11-31-9-3-2-4-10-31/h5-8,12-15H,2-4,9-11H2,1H3,(H,30,32)(H,27,28,29)/b6-5+

> <inchi_key>

> <chebi_id>

> <lincs_id>

> <pubchem_cid>
n/a

> <chembl_id>
n/a

> <molecular_mass>
469.94

> <molecular_formula>
C24H25ClFN5O2

$$$$

  SciTegic08031211342D

 22 24  0  0  0  0            999 V2000
    0.0000    0.0000    0.0000 C   0  0
    0.0000    0.0000    0.0000 O   0  0
    0.0000    0.0000    0.0000 C   0  0
    0.0000    0.0000    0.0000 C   0  0
    0.0000    0.0000    0.0000 C   0  0
    0.0000    0.0000    0.0000 N   0  0
    0.0000    0.0000    0.0000 C   0  0
    0.0000    0.0000    0.0000 N   0  0
    0.0000    0.0000    0.0000 C   0  0
    0.0000    0.0000    0.0000 N   0  0
    0.0000    0.0000    0.0000 C   0  0
    0.0000    0.0000    0.0000 C   0  0
    0.0000    0.0000    0.0000 C   0  0
    0.0000    0.0000    0.0000 C   0  0
    0.0000    0.0000    0.0000 C   0  0
    0.0000    0.0000    0.0000 Cl  0  0
    0.0000    0.0000    0.0000 C   0  0
    0.0000    0.0000    0.0000 C   0  0
    0.0000    0.0000    0.0000 C   0  0
    0.0000    0.0000    0.0000 C   0  0
    0.0000    0.0000    0.0000 O   0  0
    0.0000    0.0000    0.0000 C   0  0
  1  2  1  0
  2  3  1  0
  3  4  2  3
  4  5  1  0
  5  6  2  3
  6  7  1  0
  7  8  2  3
  8  9  1  0
  9 10  1  0
 10 11  1  0
 11 12  2  3
 12 13  1  0
 13 14  2  3
 14 15  1  0
 15 16  1  0
 15 17  2  3
 17 11  1  0
  9 18  2  3
 18  5  1  0
 18 19  1  0
 19 20  2  3
 20  3  1  0
 20 21  1  0
 21 22  1  0
M  END
> <smiles>
COC1=CC2=NC=NC(NC3=CC=CC(Cl)=C3)=C2C=C1OC

> <facility_reagent_id>
HMSL10223

> <salt_id>
101

> <chemical_name>
AG1478; Tyrphostin

> <inchi>
InChI=1S/C16H14ClN3O2/c1-21-14-7-12-13(8-15(14)22-2)18-9-19-16(12)20-11-5-3-4-10(17)6-11/h3-9H,1-2H3,(H,18,19,20)

> <inchi_key>

> <chebi_id>

> <lincs_id>

> <pubchem_cid>
n/a

> <chembl_id>
n/a

> <molecular_mass>
315.75

> <molecular_formula>
C16H14ClN3O2

$$$$

  SciTegic08031211342D

 32 35  0  0  0  0            999 V2000
    0.0000    0.0000    0.0000 C   0  0
    0.0000    0.0000    0.0000 C   0  0
    0.0000    0.0000    0.0000 C   0  0
    0.0000    0.0000    0.0000 N   0  0
    0.0000    0.0000    0.0000 C   0  0
    0.0000    0.0000    0.0000 C   0  0
    0.0000    0.0000    0.0000 C   0  0
    0.0000    0.0000    0.0000 C   0  0
    0.0000    0.0000    0.0000 C   0  0
    0.0000    0.0000    0.0000 C   0  0
    0.0000    0.0000    0.0000 N   0  0
    0.0000    0.0000    0.0000 C   0  0
    0.0000    0.0000    0.0000 N   0  0
    0.0000    0.0000    0.0000 C   0  0
    0.0000    0.0000    0.0000 N   0  0
    0.0000    0.0000    0.0000 C   0  0
    0.0000    0.0000    0.0000 C   0  0
    0.0000    0.0000    0.0000 C   0  0
    0.0000    0.0000    0.0000 C   0  0
    0.0000    0.0000    0.0000 C   0  0
    0.0000    0.0000    0.0000 Cl  0  0
    0.0000    0.0000    0.0000 C   0  0
    0.0000    0.0000    0.0000 O   0  0
    0.0000    0.0000    0.0000 C   0  0
    0.0000    0.0000    0.0000 C   0  0
    0.0000    0.0000    0.0000 C   0  0
    0.0000    0.0000    0.0000 C   0  0
    0.0000    0.0000    0.0000 F   0  0
    0.0000    0.0000    0.0000 C   0  0
    0.0000    0.0000    0.0000 C   0  0
    0.0000    0.0000    0.0000 C   0  0
    0.0000    0.0000    0.0000 O   0  0
  1  2  2  0
  2  3  1  0
  3  4  1  0
  4  5  1  0
  5  6  2  3
  6  7  1  0
  7  8  2  3
  8  9  1  0
  9 10  2  3
 10  5  1  0
  8 11  1  0
 11 12  2  3
 12 13  1  0
 13 14  2  3
 14  7  1  0
 14 15  1  0
 15 16  1  0
 16 17  1  0
 17 18  2  3
 16 19  2  3
 19 20  1  0
 20 21  1  0
 20 22  2  3
 22 18  1  0
 22 23  1  0
 23 24  1  0
 24 25  1  0
 25 26  2  3
 26 27  1  0
 27 28  1  0
 27 29  2  3
 29 30  1  0
 30 31  2  3
 31 25  1  0
  3 32  2  0
M  END
> <smiles>
C=CC(NC1=CC2=C(C=C1)N=CN=C2NC(C=C3)=CC(Cl)=C3OCC4=CC(F)=CC=C4)=O

> <facility_reagent_id>
HMSL10224

> <salt_id>
101

> <chemical_name>
AST1306

> <inchi>
InChI=1S/C24H18ClFN4O2/c1-2-23(31)29-17-6-8-21-19(11-17)24(28-14-27-21)30-18-7-9-22(20(25)12-18)32-13-15-4-3-5-16(26)10-15/h2-12,14H,1,13H2,(H,29,31)(H,27,28,30)

> <inchi_key>

> <chebi_id>

> <lincs_id>

> <pubchem_cid>
n/a

> <chembl_id>
n/a

> <molecular_mass>
448.88

> <molecular_formula>
C24H18ClFN4O2

$$$$

  SciTegic08031211342D

 33 35  0  0  0  0            999 V2000
    0.0000    0.0000    0.0000 O   0  0
    0.0000    0.0000    0.0000 C   0  0
    0.0000    0.0000    0.0000 C   0  0
    0.0000    0.0000    0.0000 N   0  0
    0.0000    0.0000    0.0000 C   0  0
    0.0000    0.0000    0.0000 C   0  0
    0.0000    0.0000    0.0000 C   0  0
    0.0000    0.0000    0.0000 O   0  0
    0.0000    0.0000    0.0000 C   0  0
    0.0000    0.0000    0.0000 C   0  0
    0.0000    0.0000    0.0000 C   0  0
    0.0000    0.0000    0.0000 C   0  0
    0.0000    0.0000    0.0000 N   0  0
    0.0000    0.0000    0.0000 C   0  0
    0.0000    0.0000    0.0000 N   0  0
    0.0000    0.0000    0.0000 C   0  0
    0.0000    0.0000    0.0000 C   0  0
    0.0000    0.0000    0.0000 C   0  0
    0.0000    0.0000    0.0000 C   0  0
    0.0000    0.0000    0.0000 Cl  0  0
    0.0000    0.0000    0.0000 C   0  0
    0.0000    0.0000    0.0000 C   0  0
    0.0000    0.0000    0.0000 F   0  0
    0.0000    0.0000    0.0000 F   0  0
    0.0000    0.0000    0.0000 F   0  0
    0.0000    0.0000    0.0000 C   0  0
    0.0000    0.0000    0.0000 O   0  0
    0.0000    0.0000    0.0000 C   0  0
    0.0000    0.0000    0.0000 F   0  0
    0.0000    0.0000    0.0000 C   0  0
    0.0000    0.0000    0.0000 C   0  0
    0.0000    0.0000    0.0000 N   0  0
    0.0000    0.0000    0.0000 C   0  0
  1  2  2  0
  2  3  1  0
  3  4  2  3
  4  5  1  0
  5  6  2  3
  6  7  1  0
  7  8  1  0
  8  9  1  0
  9 10  2  3
 10 11  1  0
 11 12  2  3
 12 13  1  0
 13 14  1  0
 14 15  1  0
 15 16  1  0
 16 17  2  3
 17 18  1  0
 18 19  2  3
 19 20  1  0
 19 21  1  0
 21 22  1  0
 22 23  1  0
 22 24  1  0
 22 25  1  0
 21 26  2  3
 26 16  1  0
 14 27  2  0
 12 28  1  0
 28 29  1  0
 28 30  2  3
 30  9  1  0
  7 31  2  3
 31  3  1  0
  2 32  1  0
 32 33  1  0
M  END
> <smiles>
O=C(C1=NC=CC(OC2=CC=C(NC(NC3=CC=C(Cl)C(C(F)(F)F)=C3)=O)C(F)=C2)=C1)NC

> <facility_reagent_id>
HMSL10225

> <salt_id>
101

> <is_restricted>
true

> <chemical_name>
Regorafenib; BAY 73-4506

> <inchi>
InChI=1S/C21H15ClF4N4O3/c1-27-19(31)18-10-13(6-7-28-18)33-12-3-5-17(16(23)9-12)30-20(32)29-11-2-4-15(22)14(8-11)21(24,25)26/h2-10H,1H3,(H,27,31)(H2,29,30,32)

> <inchi_key>

> <chebi_id>

> <lincs_id>

> <pubchem_cid>
n/a

> <chembl_id>
n/a

> <molecular_mass>
482.82

> <molecular_formula>
C21H15ClF4N4O3

$$$$
